<?xml version="1.0" encoding="UTF-8"?>

<!-- generated on Wed Mar 16 00:51:39 2022 by Eclipse SUMO duarouter Version 1.8.0
<configuration xmlns:xsi="http://www.w3.org/2001/XMLSchema-instance" xsi:noNamespaceSchemaLocation="http://sumo.dlr.de/xsd/duarouterConfiguration.xsd">

    <input>
        <net-file value="/home/alex/Downloads/sumo/2022-03-16-00-51-37/osm.net.xml"/>
        <route-files value="/home/alex/Downloads/sumo/2022-03-16-00-51-37/osm.passenger.trips.xml"/>
    </input>

    <output>
        <output-file value="/home/alex/Downloads/sumo/2022-03-16-00-51-37/osm.passenger.trips.xml.tmp"/>
        <write-trips value="true"/>
    </output>

    <time>
        <begin value="0"/>
        <end value="3600"/>
    </time>

    <report>
        <no-warnings value="true"/>
        <ignore-errors value="true"/>
        <no-step-log value="true"/>
    </report>

</configuration>
-->

<routes xmlns:xsi="http://www.w3.org/2001/XMLSchema-instance" xsi:noNamespaceSchemaLocation="http://sumo.dlr.de/xsd/routes_file.xsd">
    <vType id="veh_passenger" vClass="passenger"/>
    <trip id="veh0" type="veh_passenger" depart="0.00" departLane="best" departSpeed="max" from="-243854725#2" to="-292429056#3"/>
    <trip id="veh1" type="veh_passenger" depart="3.65" departLane="best" departSpeed="max" from="292429056#0" to="243854725#0"/>
    <trip id="veh2" type="veh_passenger" depart="7.30" departLane="best" departSpeed="max" from="-389101365#2" to="-292429056#3"/>
    <trip id="veh3" type="veh_passenger" depart="10.95" departLane="best" departSpeed="max" from="-22972473#2" to="-292429056#3"/>
    <trip id="veh4" type="veh_passenger" depart="14.60" departLane="best" from="196850609#0" to="22972473#1"/>
    <trip id="veh5" type="veh_passenger" depart="18.25" departLane="best" departSpeed="max" from="-243854725#2" to="22972473#1"/>
    <trip id="veh6" type="veh_passenger" depart="21.90" departLane="best" departSpeed="max" from="292429056#0" to="243854725#0"/>
    <trip id="veh7" type="veh_passenger" depart="25.55" departLane="best" departSpeed="max" from="-389101365#2" to="-292429056#3"/>
    <trip id="veh8" type="veh_passenger" depart="29.20" departLane="best" departSpeed="max" from="-22972473#2" to="-292429056#3"/>
    <trip id="veh9" type="veh_passenger" depart="32.85" departLane="best" departSpeed="max" from="292429056#0" to="22972473#1"/>
    <trip id="veh10" type="veh_passenger" depart="36.50" departLane="best" departSpeed="max" from="292429056#0" to="243854725#0"/>
    <trip id="veh11" type="veh_passenger" depart="40.15" departLane="best" departSpeed="max" from="-389101365#2" to="22972473#1"/>
    <trip id="veh12" type="veh_passenger" depart="43.80" departLane="best" departSpeed="max" from="292429056#0" to="22972473#1"/>
    <trip id="veh13" type="veh_passenger" depart="47.45" departLane="best" departSpeed="max" from="292429056#0" to="22972473#1"/>
    <trip id="veh14" type="veh_passenger" depart="51.10" departLane="best" departSpeed="max" from="-22972473#2" to="-292429056#3"/>
    <trip id="veh15" type="veh_passenger" depart="54.75" departLane="best" departSpeed="max" from="-22972473#2" to="-35557143#4"/>
    <trip id="veh16" type="veh_passenger" depart="58.40" departLane="best" departSpeed="max" from="-389101365#2" to="-292429056#3"/>
    <trip id="veh17" type="veh_passenger" depart="62.05" departLane="best" from="196850609#0" to="22972473#1"/>
    <trip id="veh18" type="veh_passenger" depart="65.70" departLane="best" from="35557143#1" to="22972473#1"/>
    <trip id="veh19" type="veh_passenger" depart="69.35" departLane="best" departSpeed="max" from="292429056#0" to="243854725#0"/>
    <trip id="veh20" type="veh_passenger" depart="73.01" departLane="best" departSpeed="max" from="-243854725#2" to="-292429056#3"/>
    <trip id="veh21" type="veh_passenger" depart="76.66" departLane="best" from="-35557143#4" to="-292429056#3"/>
    <trip id="veh22" type="veh_passenger" depart="80.31" departLane="best" departSpeed="max" from="-243854725#2" to="-292429056#3"/>
    <trip id="veh23" type="veh_passenger" depart="83.96" departLane="best" departSpeed="max" from="-389101365#2" to="-292429056#3"/>
    <trip id="veh24" type="veh_passenger" depart="87.61" departLane="best" departSpeed="max" from="-22972473#2" to="-292429056#3"/>
    <trip id="veh25" type="veh_passenger" depart="91.26" departLane="best" departSpeed="max" from="-22972473#2" to="196850609#0"/>
    <trip id="veh26" type="veh_passenger" depart="94.91" departLane="best" from="35557143#1" to="22972473#1"/>
    <trip id="veh27" type="veh_passenger" depart="98.56" departLane="best" departSpeed="max" from="-22972473#2" to="243854725#0"/>
    <trip id="veh28" type="veh_passenger" depart="102.21" departLane="best" departSpeed="max" from="292429056#0" to="22972473#1"/>
    <trip id="veh29" type="veh_passenger" depart="105.86" departLane="best" departSpeed="max" from="-243854725#2" to="22972473#1"/>
    <trip id="veh30" type="veh_passenger" depart="109.51" departLane="best" departSpeed="max" from="-22972473#2" to="196850609#1"/>
    <trip id="veh31" type="veh_passenger" depart="113.16" departLane="best" departSpeed="max" from="292429056#0" to="389101365#0"/>
    <trip id="veh32" type="veh_passenger" depart="116.81" departLane="best" departSpeed="max" from="292429056#0" to="22972473#1"/>
    <trip id="veh33" type="veh_passenger" depart="120.46" departLane="best" departSpeed="max" from="292429056#0" to="22972473#1"/>
    <trip id="veh34" type="veh_passenger" depart="124.11" departLane="best" departSpeed="max" from="-22972473#2" to="-35557143#4"/>
    <trip id="veh35" type="veh_passenger" depart="127.76" departLane="best" departSpeed="max" from="-22972473#2" to="389101365#0"/>
    <trip id="veh36" type="veh_passenger" depart="131.41" departLane="best" departSpeed="max" from="292429056#0" to="35557143#1"/>
    <trip id="veh37" type="veh_passenger" depart="135.06" departLane="best" from="-35557143#4" to="-292429056#3"/>
    <trip id="veh38" type="veh_passenger" depart="138.71" departLane="best" departSpeed="max" from="292429056#0" to="389101365#0"/>
    <trip id="veh39" type="veh_passenger" depart="142.36" departLane="best" departSpeed="max" from="-22972473#2" to="196850609#1"/>
    <trip id="veh40" type="veh_passenger" depart="146.01" departLane="best" departSpeed="max" from="-22972473#2" to="243854725#0"/>
    <trip id="veh41" type="veh_passenger" depart="149.66" departLane="best" departSpeed="max" from="171423001#0" to="22972473#1"/>
    <trip id="veh42" type="veh_passenger" depart="153.31" departLane="best" departSpeed="max" from="-389101365#2" to="-292429056#3"/>
    <trip id="veh43" type="veh_passenger" depart="156.96" departLane="best" from="35557143#1" to="22972473#1"/>
    <trip id="veh44" type="veh_passenger" depart="160.61" departLane="best" departSpeed="max" from="-22972473#2" to="-292429056#3"/>
    <trip id="veh45" type="veh_passenger" depart="164.26" departLane="best" departSpeed="max" from="-389101365#2" to="22972473#1"/>
    <trip id="veh46" type="veh_passenger" depart="167.91" departLane="best" departSpeed="max" from="-243854725#2" to="-292429056#3"/>
    <trip id="veh47" type="veh_passenger" depart="171.56" departLane="best" departSpeed="max" from="-243854725#2" to="-292429056#3"/>
    <trip id="veh48" type="veh_passenger" depart="175.21" departLane="best" departSpeed="max" from="292429056#0" to="22972473#1"/>
    <trip id="veh49" type="veh_passenger" depart="178.86" departLane="best" departSpeed="max" from="-22972473#2" to="196850609#1"/>
    <trip id="veh50" type="veh_passenger" depart="182.51" departLane="best" departSpeed="max" from="292429056#0" to="243854725#0"/>
    <trip id="veh51" type="veh_passenger" depart="186.16" departLane="best" departSpeed="max" from="-389101365#2" to="-292429056#3"/>
    <trip id="veh52" type="veh_passenger" depart="189.81" departLane="best" from="35557143#1" to="22972473#1"/>
    <trip id="veh53" type="veh_passenger" depart="193.46" departLane="best" departSpeed="max" from="-22972473#2" to="-292429056#3"/>
    <trip id="veh54" type="veh_passenger" depart="197.11" departLane="best" departSpeed="max" from="-243854725#2" to="-292429056#3"/>
    <trip id="veh55" type="veh_passenger" depart="200.76" departLane="best" departSpeed="max" from="171423001#0" to="22972473#1"/>
    <trip id="veh56" type="veh_passenger" depart="204.41" departLane="best" departSpeed="max" from="-389101365#2" to="22972473#1"/>
    <trip id="veh57" type="veh_passenger" depart="208.06" departLane="best" departSpeed="max" from="-22972473#2" to="196850609#1"/>
    <trip id="veh58" type="veh_passenger" depart="211.71" departLane="best" departSpeed="max" from="-22972473#2" to="-292429056#3"/>
    <trip id="veh59" type="veh_passenger" depart="215.37" departLane="best" departSpeed="max" from="292429056#0" to="389101365#0"/>
    <trip id="veh60" type="veh_passenger" depart="219.02" departLane="best" departSpeed="max" from="-389101365#2" to="-292429056#3"/>
    <trip id="veh61" type="veh_passenger" depart="222.67" departLane="best" departSpeed="max" from="292429056#0" to="243854725#0"/>
    <trip id="veh62" type="veh_passenger" depart="226.32" departLane="best" departSpeed="max" from="-22972473#2" to="-292429056#3"/>
    <trip id="veh63" type="veh_passenger" depart="229.97" departLane="best" departSpeed="max" from="-243854725#2" to="22972473#1"/>
    <trip id="veh64" type="veh_passenger" depart="233.62" departLane="best" departSpeed="max" from="-389101365#2" to="-292429056#3"/>
    <trip id="veh65" type="veh_passenger" depart="237.27" departLane="best" departSpeed="max" from="-22972473#2" to="243854725#0"/>
    <trip id="veh66" type="veh_passenger" depart="240.92" departLane="best" departSpeed="max" from="292429056#0" to="22972473#1"/>
    <trip id="veh67" type="veh_passenger" depart="244.57" departLane="best" departSpeed="max" from="-389101365#2" to="-292429056#3"/>
    <trip id="veh68" type="veh_passenger" depart="248.22" departLane="best" departSpeed="max" from="-22972473#2" to="389101365#0"/>
    <trip id="veh69" type="veh_passenger" depart="251.87" departLane="best" departSpeed="max" from="292429056#0" to="22972473#1"/>
    <trip id="veh70" type="veh_passenger" depart="255.52" departLane="best" departSpeed="max" from="292429056#0" to="22972473#1"/>
    <trip id="veh71" type="veh_passenger" depart="259.17" departLane="best" departSpeed="max" from="-243854725#2" to="-292429056#3"/>
    <trip id="veh72" type="veh_passenger" depart="262.82" departLane="best" departSpeed="max" from="292429056#0" to="35557143#1"/>
    <trip id="veh73" type="veh_passenger" depart="266.47" departLane="best" departSpeed="max" from="-243854725#2" to="-292429056#3"/>
    <trip id="veh74" type="veh_passenger" depart="270.12" departLane="best" departSpeed="max" from="292429056#0" to="389101365#0"/>
    <trip id="veh75" type="veh_passenger" depart="273.77" departLane="best" departSpeed="max" from="-389101365#2" to="22972473#1"/>
    <trip id="veh76" type="veh_passenger" depart="277.42" departLane="best" departSpeed="max" from="292429056#0" to="389101365#0"/>
    <trip id="veh77" type="veh_passenger" depart="281.07" departLane="best" departSpeed="max" from="292429056#0" to="389101365#0"/>
    <trip id="veh78" type="veh_passenger" depart="284.72" departLane="best" departSpeed="max" from="-22972473#2" to="243854725#0"/>
    <trip id="veh79" type="veh_passenger" depart="288.37" departLane="best" departSpeed="max" from="292429056#0" to="389101365#0"/>
    <trip id="veh80" type="veh_passenger" depart="292.02" departLane="best" departSpeed="max" from="292429056#0" to="35557143#1"/>
    <trip id="veh81" type="veh_passenger" depart="295.67" departLane="best" departSpeed="max" from="-22972473#2" to="-292429056#3"/>
    <trip id="veh82" type="veh_passenger" depart="299.32" departLane="best" from="35557143#1" to="22972473#1"/>
    <trip id="veh83" type="veh_passenger" depart="302.97" departLane="best" departSpeed="max" from="-22972473#2" to="196850609#1"/>
    <trip id="veh84" type="veh_passenger" depart="306.62" departLane="best" departSpeed="max" from="-389101365#2" to="22972473#1"/>
    <trip id="veh85" type="veh_passenger" depart="310.27" departLane="best" departSpeed="max" from="-22972473#2" to="389101365#0"/>
    <trip id="veh86" type="veh_passenger" depart="313.92" departLane="best" departSpeed="max" from="292429056#0" to="243854725#0"/>
    <trip id="veh87" type="veh_passenger" depart="317.57" departLane="best" departSpeed="max" from="-389101365#2" to="-292429056#3"/>
    <trip id="veh88" type="veh_passenger" depart="321.22" departLane="best" departSpeed="max" from="-22972473#2" to="196850609#1"/>
    <trip id="veh89" type="veh_passenger" depart="324.87" departLane="best" departSpeed="max" from="292429056#0" to="243854725#0"/>
    <trip id="veh90" type="veh_passenger" depart="328.52" departLane="best" departSpeed="max" from="292429056#0" to="22972473#1"/>
    <trip id="veh91" type="veh_passenger" depart="332.17" departLane="best" departSpeed="max" from="-22972473#2" to="-35557143#4"/>
    <trip id="veh92" type="veh_passenger" depart="335.82" departLane="best" departSpeed="max" from="-389101365#2" to="22972473#1"/>
    <trip id="veh93" type="veh_passenger" depart="339.47" departLane="best" departSpeed="max" from="-389101365#2" to="-292429056#3"/>
    <trip id="veh94" type="veh_passenger" depart="343.12" departLane="best" departSpeed="max" from="-22972473#2" to="196850609#1"/>
    <trip id="veh95" type="veh_passenger" depart="346.77" departLane="best" departSpeed="max" from="292429056#0" to="243854725#0"/>
    <trip id="veh96" type="veh_passenger" depart="350.42" departLane="best" departSpeed="max" from="-243854725#2" to="-292429056#3"/>
    <trip id="veh97" type="veh_passenger" depart="354.07" departLane="best" departSpeed="max" from="-389101365#2" to="22972473#1"/>
    <trip id="veh98" type="veh_passenger" depart="357.73" departLane="best" departSpeed="max" from="292429056#0" to="243854725#0"/>
    <trip id="veh99" type="veh_passenger" depart="361.38" departLane="best" departSpeed="max" from="-22972473#2" to="196850609#1"/>
    <trip id="veh100" type="veh_passenger" depart="365.03" departLane="best" departSpeed="max" from="292429056#0" to="389101365#0"/>
    <trip id="veh101" type="veh_passenger" depart="368.68" departLane="best" departSpeed="max" from="292429056#0" to="22972473#1"/>
    <trip id="veh102" type="veh_passenger" depart="372.33" departLane="best" departSpeed="max" from="292429056#0" to="22972473#1"/>
    <trip id="veh103" type="veh_passenger" depart="375.98" departLane="best" departSpeed="max" from="292429056#0" to="243854725#0"/>
    <trip id="veh104" type="veh_passenger" depart="379.63" departLane="best" departSpeed="max" from="-243854725#2" to="22972473#1"/>
    <trip id="veh105" type="veh_passenger" depart="383.28" departLane="best" departSpeed="max" from="-22972473#2" to="-35557143#4"/>
    <trip id="veh106" type="veh_passenger" depart="386.93" departLane="best" departSpeed="max" from="-389101365#2" to="22972473#1"/>
    <trip id="veh107" type="veh_passenger" depart="390.58" departLane="best" departSpeed="max" from="-389101365#2" to="-292429056#3"/>
    <trip id="veh108" type="veh_passenger" depart="394.23" departLane="best" departSpeed="max" from="292429056#0" to="243854725#0"/>
    <trip id="veh109" type="veh_passenger" depart="397.88" departLane="best" departSpeed="max" from="-389101365#2" to="-292429056#3"/>
    <trip id="veh110" type="veh_passenger" depart="401.53" departLane="best" departSpeed="max" from="292429056#0" to="389101365#0"/>
    <trip id="veh111" type="veh_passenger" depart="405.18" departLane="best" departSpeed="max" from="171423001#0" to="22972473#1"/>
    <trip id="veh112" type="veh_passenger" depart="408.83" departLane="best" departSpeed="max" from="-243854725#2" to="-292429056#3"/>
    <trip id="veh113" type="veh_passenger" depart="412.48" departLane="best" departSpeed="max" from="-389101365#2" to="-292429056#3"/>
    <trip id="veh114" type="veh_passenger" depart="416.13" departLane="best" departSpeed="max" from="-389101365#2" to="-292429056#3"/>
    <trip id="veh115" type="veh_passenger" depart="419.78" departLane="best" departSpeed="max" from="-389101365#2" to="-292429056#3"/>
    <trip id="veh116" type="veh_passenger" depart="423.43" departLane="best" departSpeed="max" from="-389101365#2" to="22972473#1"/>
    <trip id="veh117" type="veh_passenger" depart="427.08" departLane="best" departSpeed="max" from="-22972473#2" to="196850609#1"/>
    <trip id="veh118" type="veh_passenger" depart="430.73" departLane="best" departSpeed="max" from="-22972473#2" to="196850609#0"/>
    <trip id="veh119" type="veh_passenger" depart="434.38" departLane="best" departSpeed="max" from="292429056#0" to="35557143#1"/>
    <trip id="veh120" type="veh_passenger" depart="438.03" departLane="best" departSpeed="max" from="-243854725#2" to="-292429056#3"/>
    <trip id="veh121" type="veh_passenger" depart="441.68" departLane="best" departSpeed="max" from="-22972473#2" to="-292429056#3"/>
    <trip id="veh122" type="veh_passenger" depart="445.33" departLane="best" departSpeed="max" from="-22972473#2" to="243854725#0"/>
    <trip id="veh123" type="veh_passenger" depart="448.98" departLane="best" departSpeed="max" from="292429056#0" to="243854725#0"/>
    <trip id="veh124" type="veh_passenger" depart="452.63" departLane="best" departSpeed="max" from="-243854725#2" to="22972473#1"/>
    <trip id="veh125" type="veh_passenger" depart="456.28" departLane="best" departSpeed="max" from="292429056#0" to="389101365#0"/>
    <trip id="veh126" type="veh_passenger" depart="459.93" departLane="best" departSpeed="max" from="-22972473#2" to="-292429056#3"/>
    <trip id="veh127" type="veh_passenger" depart="463.58" departLane="best" departSpeed="max" from="292429056#0" to="22972473#1"/>
    <trip id="veh128" type="veh_passenger" depart="467.23" departLane="best" departSpeed="max" from="-22972473#2" to="243854725#0"/>
    <trip id="veh129" type="veh_passenger" depart="470.88" departLane="best" departSpeed="max" from="292429056#0" to="22972473#1"/>
    <trip id="veh130" type="veh_passenger" depart="474.53" departLane="best" departSpeed="max" from="-22972473#2" to="389101365#0"/>
    <trip id="veh131" type="veh_passenger" depart="478.18" departLane="best" departSpeed="max" from="292429056#0" to="35557143#1"/>
    <trip id="veh132" type="veh_passenger" depart="481.83" departLane="best" departSpeed="max" from="-22972473#2" to="389101365#0"/>
    <trip id="veh133" type="veh_passenger" depart="485.48" departLane="best" departSpeed="max" from="292429056#0" to="389101365#0"/>
    <trip id="veh134" type="veh_passenger" depart="489.13" departLane="best" departSpeed="max" from="-389101365#2" to="22972473#1"/>
    <trip id="veh135" type="veh_passenger" depart="492.78" departLane="best" departSpeed="max" from="-389101365#2" to="-292429056#3"/>
    <trip id="veh136" type="veh_passenger" depart="496.43" departLane="best" departSpeed="max" from="-22972473#2" to="389101365#0"/>
    <trip id="veh137" type="veh_passenger" depart="500.09" departLane="best" departSpeed="max" from="-22972473#2" to="243854725#0"/>
    <trip id="veh138" type="veh_passenger" depart="503.74" departLane="best" departSpeed="max" from="292429056#0" to="22972473#1"/>
    <trip id="veh139" type="veh_passenger" depart="507.39" departLane="best" departSpeed="max" from="-22972473#2" to="-292429056#3"/>
    <trip id="veh140" type="veh_passenger" depart="511.04" departLane="best" departSpeed="max" from="-243854725#2" to="-292429056#3"/>
    <trip id="veh141" type="veh_passenger" depart="514.69" departLane="best" departSpeed="max" from="-243854725#2" to="-292429056#3"/>
    <trip id="veh142" type="veh_passenger" depart="518.34" departLane="best" departSpeed="max" from="-243854725#2" to="-292429056#3"/>
    <trip id="veh143" type="veh_passenger" depart="521.99" departLane="best" from="-35557143#4" to="-292429056#3"/>
    <trip id="veh144" type="veh_passenger" depart="525.64" departLane="best" departSpeed="max" from="-243854725#2" to="-292429056#3"/>
    <trip id="veh145" type="veh_passenger" depart="529.29" departLane="best" departSpeed="max" from="-243854725#2" to="-292429056#3"/>
    <trip id="veh146" type="veh_passenger" depart="532.94" departLane="best" from="35557143#1" to="22972473#1"/>
    <trip id="veh147" type="veh_passenger" depart="536.59" departLane="best" departSpeed="max" from="292429056#0" to="22972473#1"/>
    <trip id="veh148" type="veh_passenger" depart="540.24" departLane="best" departSpeed="max" from="-243854725#2" to="-292429056#3"/>
    <trip id="veh149" type="veh_passenger" depart="543.89" departLane="best" departSpeed="max" from="-22972473#2" to="-292429056#3"/>
    <trip id="veh150" type="veh_passenger" depart="547.54" departLane="best" departSpeed="max" from="292429056#0" to="22972473#1"/>
    <trip id="veh151" type="veh_passenger" depart="551.19" departLane="best" from="171423001#1" to="22972473#1"/>
    <trip id="veh152" type="veh_passenger" depart="554.84" departLane="best" departSpeed="max" from="292429056#0" to="389101365#0"/>
    <trip id="veh153" type="veh_passenger" depart="558.49" departLane="best" departSpeed="max" from="-243854725#2" to="-292429056#3"/>
    <trip id="veh154" type="veh_passenger" depart="562.14" departLane="best" departSpeed="max" from="-243854725#2" to="-292429056#3"/>
    <trip id="veh155" type="veh_passenger" depart="565.79" departLane="best" departSpeed="max" from="-22972473#2" to="196850609#1"/>
    <trip id="veh156" type="veh_passenger" depart="569.44" departLane="best" departSpeed="max" from="292429056#0" to="389101365#0"/>
    <trip id="veh157" type="veh_passenger" depart="573.09" departLane="best" departSpeed="max" from="292429056#0" to="22972473#1"/>
    <trip id="veh158" type="veh_passenger" depart="576.74" departLane="best" departSpeed="max" from="-389101365#2" to="22972473#1"/>
    <trip id="veh159" type="veh_passenger" depart="580.39" departLane="best" departSpeed="max" from="292429056#0" to="22972473#1"/>
    <trip id="veh160" type="veh_passenger" depart="584.04" departLane="best" from="-35557143#4" to="-292429056#3"/>
    <trip id="veh161" type="veh_passenger" depart="587.69" departLane="best" departSpeed="max" from="292429056#0" to="243854725#0"/>
    <trip id="veh162" type="veh_passenger" depart="591.34" departLane="best" departSpeed="max" from="-22972473#2" to="196850609#1"/>
    <trip id="veh163" type="veh_passenger" depart="594.99" departLane="best" from="-35557143#4" to="-292429056#3"/>
    <trip id="veh164" type="veh_passenger" depart="598.64" departLane="best" departSpeed="max" from="-22972473#2" to="389101365#0"/>
    <trip id="veh165" type="veh_passenger" depart="602.29" departLane="best" departSpeed="max" from="292429056#0" to="22972473#1"/>
    <trip id="veh166" type="veh_passenger" depart="605.94" departLane="best" departSpeed="max" from="-22972473#2" to="243854725#0"/>
    <trip id="veh167" type="veh_passenger" depart="609.59" departLane="best" departSpeed="max" from="-389101365#2" to="22972473#1"/>
    <trip id="veh168" type="veh_passenger" depart="613.24" departLane="best" departSpeed="max" from="171423001#0" to="22972473#1"/>
    <trip id="veh169" type="veh_passenger" depart="616.89" departLane="best" departSpeed="max" from="292429056#0" to="35557143#1"/>
    <trip id="veh170" type="veh_passenger" depart="620.54" departLane="best" departSpeed="max" from="292429056#0" to="22972473#1"/>
    <trip id="veh171" type="veh_passenger" depart="624.19" departLane="best" from="35557143#1" to="22972473#1"/>
    <trip id="veh172" type="veh_passenger" depart="627.84" departLane="best" departSpeed="max" from="292429056#0" to="22972473#1"/>
    <trip id="veh173" type="veh_passenger" depart="631.49" departLane="best" departSpeed="max" from="-22972473#2" to="389101365#0"/>
    <trip id="veh174" type="veh_passenger" depart="635.14" departLane="best" departSpeed="max" from="-243854725#2" to="22972473#1"/>
    <trip id="veh175" type="veh_passenger" depart="638.79" departLane="best" departSpeed="max" from="-389101365#2" to="-292429056#3"/>
    <trip id="veh176" type="veh_passenger" depart="642.45" departLane="best" departSpeed="max" from="292429056#0" to="389101365#0"/>
    <trip id="veh177" type="veh_passenger" depart="646.10" departLane="best" departSpeed="max" from="171423001#0" to="22972473#1"/>
    <trip id="veh178" type="veh_passenger" depart="649.75" departLane="best" departSpeed="max" from="292429056#0" to="243854725#0"/>
    <trip id="veh179" type="veh_passenger" depart="653.40" departLane="best" departSpeed="max" from="-22972473#2" to="196850609#1"/>
    <trip id="veh180" type="veh_passenger" depart="657.05" departLane="best" departSpeed="max" from="292429056#0" to="35557143#1"/>
    <trip id="veh181" type="veh_passenger" depart="660.70" departLane="best" departSpeed="max" from="292429056#0" to="243854725#0"/>
    <trip id="veh182" type="veh_passenger" depart="664.35" departLane="best" departSpeed="max" from="292429056#0" to="389101365#0"/>
    <trip id="veh183" type="veh_passenger" depart="668.00" departLane="best" departSpeed="max" from="292429056#0" to="389101365#0"/>
    <trip id="veh184" type="veh_passenger" depart="671.65" departLane="best" departSpeed="max" from="-22972473#2" to="243854725#0"/>
    <trip id="veh185" type="veh_passenger" depart="675.30" departLane="best" departSpeed="max" from="-243854725#2" to="22972473#1"/>
    <trip id="veh186" type="veh_passenger" depart="678.95" departLane="best" departSpeed="max" from="-243854725#2" to="-292429056#3"/>
    <trip id="veh187" type="veh_passenger" depart="682.60" departLane="best" departSpeed="max" from="292429056#0" to="22972473#1"/>
    <trip id="veh188" type="veh_passenger" depart="686.25" departLane="best" departSpeed="max" from="-243854725#2" to="-292429056#3"/>
    <trip id="veh189" type="veh_passenger" depart="689.90" departLane="best" departSpeed="max" from="-22972473#2" to="243854725#0"/>
    <trip id="veh190" type="veh_passenger" depart="693.55" departLane="best" departSpeed="max" from="292429056#0" to="243854725#0"/>
    <trip id="veh191" type="veh_passenger" depart="697.20" departLane="best" departSpeed="max" from="-389101365#2" to="22972473#1"/>
    <trip id="veh192" type="veh_passenger" depart="700.85" departLane="best" departSpeed="max" from="171423001#0" to="22972473#1"/>
    <trip id="veh193" type="veh_passenger" depart="704.50" departLane="best" from="35557143#1" to="22972473#1"/>
    <trip id="veh194" type="veh_passenger" depart="708.15" departLane="best" departSpeed="max" from="-243854725#2" to="22972473#1"/>
    <trip id="veh195" type="veh_passenger" depart="711.80" departLane="best" departSpeed="max" from="292429056#0" to="243854725#0"/>
    <trip id="veh196" type="veh_passenger" depart="715.45" departLane="best" from="171423001#1" to="22972473#1"/>
    <trip id="veh197" type="veh_passenger" depart="719.10" departLane="best" departSpeed="max" from="292429056#0" to="243854725#0"/>
    <trip id="veh198" type="veh_passenger" depart="722.75" departLane="best" departSpeed="max" from="-389101365#2" to="22972473#1"/>
    <trip id="veh199" type="veh_passenger" depart="726.40" departLane="best" departSpeed="max" from="-243854725#2" to="-292429056#3"/>
    <trip id="veh200" type="veh_passenger" depart="730.05" departLane="best" departSpeed="max" from="292429056#0" to="243854725#0"/>
    <trip id="veh201" type="veh_passenger" depart="733.70" departLane="best" departSpeed="max" from="-389101365#2" to="-292429056#3"/>
    <trip id="veh202" type="veh_passenger" depart="737.35" departLane="best" departSpeed="max" from="292429056#0" to="389101365#0"/>
    <trip id="veh203" type="veh_passenger" depart="741.00" departLane="best" departSpeed="max" from="292429056#0" to="22972473#1"/>
    <trip id="veh204" type="veh_passenger" depart="744.65" departLane="best" departSpeed="max" from="292429056#0" to="389101365#0"/>
    <trip id="veh205" type="veh_passenger" depart="748.30" departLane="best" departSpeed="max" from="-22972473#2" to="-292429056#3"/>
    <trip id="veh206" type="veh_passenger" depart="751.95" departLane="best" departSpeed="max" from="-22972473#2" to="389101365#0"/>
    <trip id="veh207" type="veh_passenger" depart="755.60" departLane="best" departSpeed="max" from="-243854725#2" to="-292429056#3"/>
    <trip id="veh208" type="veh_passenger" depart="759.25" departLane="best" departSpeed="max" from="292429056#0" to="389101365#0"/>
    <trip id="veh209" type="veh_passenger" depart="762.90" departLane="best" departSpeed="max" from="-22972473#2" to="389101365#0"/>
    <trip id="veh210" type="veh_passenger" depart="766.55" departLane="best" departSpeed="max" from="-22972473#2" to="196850609#1"/>
    <trip id="veh211" type="veh_passenger" depart="770.20" departLane="best" departSpeed="max" from="292429056#0" to="243854725#0"/>
    <trip id="veh212" type="veh_passenger" depart="773.85" departLane="best" departSpeed="max" from="-389101365#2" to="-292429056#3"/>
    <trip id="veh213" type="veh_passenger" depart="777.50" departLane="best" departSpeed="max" from="-22972473#2" to="243854725#0"/>
    <trip id="veh214" type="veh_passenger" depart="781.15" departLane="best" departSpeed="max" from="-243854725#2" to="-292429056#3"/>
    <trip id="veh215" type="veh_passenger" depart="784.81" departLane="best" from="196850609#0" to="22972473#1"/>
    <trip id="veh216" type="veh_passenger" depart="788.46" departLane="best" departSpeed="max" from="-22972473#2" to="243854725#0"/>
    <trip id="veh217" type="veh_passenger" depart="792.11" departLane="best" departSpeed="max" from="-243854725#2" to="-292429056#3"/>
    <trip id="veh218" type="veh_passenger" depart="795.76" departLane="best" departSpeed="max" from="-243854725#2" to="-292429056#3"/>
    <trip id="veh219" type="veh_passenger" depart="799.41" departLane="best" departSpeed="max" from="-243854725#2" to="-292429056#3"/>