<?xml version="1.0" encoding="UTF-8"?>

<!-- generated on Wed Mar 16 00:51:39 2022 by Eclipse SUMO polyconvert Version 1.8.0
<configuration xmlns:xsi="http://www.w3.org/2001/XMLSchema-instance" xsi:noNamespaceSchemaLocation="http://sumo.dlr.de/xsd/polyconvertConfiguration.xsd">

    <input>
        <net-file value="osm.net.xml"/>
        <osm-files value="osm_bbox.osm.xml"/>
        <osm.keep-full-type value="true"/>
        <type-file value="/usr/share/sumo/data/typemap/osmPolyconvert.typ.xml"/>
    </input>

    <output>
        <output-file value="osm.poly.xml"/>
    </output>

    <processing>
        <poi-layer-offset value="5"/>
    </processing>

    <report>
        <verbose value="true"/>
    </report>

</configuration>
-->

<additional xmlns:xsi="http://www.w3.org/2001/XMLSchema-instance" xsi:noNamespaceSchemaLocation="http://sumo.dlr.de/xsd/additional_file.xsd">
    <location netOffset="-390490.87,-5819228.12" convBoundary="-0.34,-26.59,511.96,537.49" origBoundary="13.386175,52.511986,13.393843,52.517089" projParameter="+proj=utm +zone=33 +ellps=WGS84 +datum=WGS84 +units=m +no_defs"/>

    <poly id="138554286" type="landuse.commercial" color="209,209,204" fill="1" layer="-3.00" shape="42.804156,360.015015 55.657584,361.040851 59.010161,361.299769 63.519211,361.666381 66.851431,361.925759 79.902116,362.969507 80.717586,363.006927 81.282251,363.061079 81.256028,363.406623 83.676789,363.586225 86.424234,363.803041 86.457243,363.457345 94.645049,364.097893 94.601698,364.588479 111.517386,365.735150 111.550893,365.411699 112.862678,365.482551 116.623604,365.788026 120.309644,366.084049 150.043200,368.491365 181.404678,370.840271 184.238584,369.152381 185.109667,357.081679 185.924487,345.835681 186.390940,339.360097 186.812214,333.597693 186.994924,330.833955 187.379542,324.949964 187.915843,316.736907 189.694800,295.154050 153.247569,292.173056 146.691362,291.640639 142.284286,291.282799 137.455525,290.889868 121.840139,289.613913 105.353984,288.257307 100.694601,287.849501 98.681172,287.671919 96.912761,287.522248 94.804338,287.346789 92.925870,287.132812 92.759995,289.128370 92.498069,292.294479 91.707249,301.870813 90.911884,311.547397 90.639124,314.836153 90.152591,320.711304 83.317471,320.151819 82.863212,325.647909 45.436546,322.578326 28.557919,321.275262 8.134942,319.639763 6.319041,319.491187 4.751503,338.955156 23.195911,340.456819 22.967742,344.523521 22.818349,346.040224 21.999428,357.086057 21.899843,358.401348 42.804156,360.015015"/>
    <poly id="147082784" type="amenity.parking" color="184,184,179" fill="1" layer="-1.00" shape="336.981396,277.136212 339.738816,272.011677 345.102845,199.551287 342.735805,199.348101 336.981396,277.136212"/>
    <poly id="157099372" type="building.yes" color="255,230,230" fill="1" layer="-1.00" shape="379.202872,333.313615 379.969179,323.526467 380.966151,310.685206 354.452268,308.672094 354.483159,307.925853 342.828855,307.095060 341.330031,327.569958 342.533504,327.654413 352.826987,328.348615 353.016605,327.109220 363.858951,327.757831 371.804570,328.192813 371.000754,339.037925 378.662517,339.835328 378.992017,335.733012 392.939568,336.813250 393.154146,334.560686 379.202872,333.313615"/>
    <poly id="188036510" type="landuse.commercial" color="209,209,204" fill="1" layer="-3.00" shape="288.633854,380.121048 289.643216,367.846992 294.206764,368.223728 294.905922,359.695483 290.554574,357.266526 291.545142,342.322253 292.094735,335.611150 293.449422,319.946590 294.763746,303.993612 303.880364,304.880867 309.110665,305.320647 312.525073,305.611744 321.530143,306.367986 316.064768,374.257225 315.426826,382.183208 305.981598,381.470177 301.218655,380.675026 288.633854,380.121048"/>
    <poly id="188036512" type="landuse.residential" color="235,235,227" fill="1" layer="-3.00" shape="337.186732,384.124006 353.045509,385.372955 373.305451,387.024638 373.325901,386.723736 374.244132,386.803426 374.275675,386.391000 376.022692,386.496736 375.978723,387.265523 376.869318,387.323574 376.918455,387.700820 381.238451,388.116445 381.251067,387.159186 400.456062,388.689823 400.458747,389.724635 404.478209,390.057954 404.529862,389.633953 405.453143,389.635643 405.484041,388.889402 407.191336,389.040544 427.883904,390.916495 428.564652,391.001484 428.533894,390.534808 429.772514,390.674140 429.896830,391.683987 445.388902,392.930272 448.733804,355.344509 447.732412,355.188763 447.754352,354.954594 448.196383,354.989263 448.259630,354.475983 448.796654,354.508537 452.045886,318.416015 449.330634,315.071410 413.719262,312.414838 381.052073,309.971122 380.966151,310.685206 354.452268,308.672094 354.483159,307.925853 342.828855,307.095060 341.330031,327.569958 342.533504,327.654413 342.158831,332.469909 341.128197,345.623507 340.318768,345.552525 340.236727,346.745012 339.917821,346.752120 337.186732,384.124006"/>
    <poly id="188036515" type="landuse.residential" color="235,235,227" fill="1" layer="-3.00" shape="294.905922,359.695483 290.554574,357.266526 291.545142,342.322253 292.094735,335.611150 293.449422,319.946590 294.763746,303.993612 285.167599,303.217215 275.530488,302.430623 258.874556,301.066161 237.879655,299.353440 212.273616,297.265203 211.190275,310.475654 210.559358,318.101052 209.054243,335.226725 208.589254,340.856570 208.136596,346.430502 207.783574,350.689146 207.357150,355.917535 206.744202,364.043278 206.115622,371.468328 208.025649,373.706878 224.585619,375.039917 231.616418,375.550719 249.339869,377.002543 275.707150,379.151876 276.053939,379.177526 276.102109,378.597813 282.501871,379.122760 288.432213,379.602544 288.388843,380.093128 288.633854,380.121048 289.643216,367.846992 294.206764,368.223728 294.905922,359.695483"/>
    <poly id="25945204" type="building.yes" color="255,230,230" fill="1" layer="-1.00" shape="294.763746,303.993612 285.167599,303.217215 275.530488,302.430623 273.821510,323.210684 272.379885,340.757765 291.545142,342.322253 292.094735,335.611150 279.206890,334.563205 280.493435,318.889032 293.449422,319.946590 294.763746,303.993612"/>
    <poly id="25945207" type="building.office" color="255,230,230" fill="1" layer="-1.00" shape="208.589254,340.856570 208.136596,346.430502 221.337546,347.515784 233.837871,348.538839 236.171082,320.144639 237.879655,299.353440 212.273616,297.265203 211.190275,310.475654 210.559358,318.101052 209.054243,335.226725 208.589254,340.856570"/>
    <poly id="25945210" type="building.yes" color="255,230,230" fill="1" layer="-1.00" shape="275.530488,302.430623 258.874556,301.066161 237.879655,299.353440 236.171082,320.144639 273.821510,323.210684 275.530488,302.430623"/>
    <poly id="25945410" type="building.retail" color="255,230,230" fill="1" layer="-1.00" shape="283.957646,203.284475 278.341206,202.886711 270.717601,202.288904 219.809789,198.405845 218.764108,213.306854 217.183837,232.848898 215.790681,251.952790 215.030218,262.596673 215.291599,265.183586 215.998503,267.048388 218.662878,271.451133 219.689111,272.719045 221.062971,273.745521 222.473075,274.570891 223.710072,275.244335 224.921501,275.684670 227.233149,276.144970 267.683205,279.315437 283.482766,280.632261 284.985976,261.581580 284.394161,261.528010 285.902682,242.410447 280.904255,242.021157 283.957646,203.284475"/>
    <poly id="281029235" type="man_made.pipeline" color="255,230,230" fill="0" layer="-1.00" shape="334.137965,260.430216 336.072274,205.883876 252.903731,133.193980"/>
    <poly id="281029304" type="man_made.pipeline" color="255,230,230" fill="0" layer="-1.00" shape="504.197528,537.493444 511.710335,403.182550 320.115886,385.450359 328.557976,293.036197 184.874570,128.446852"/>
    <poly id="294390569" type="building.yes" color="255,230,230" fill="1" layer="-1.00" shape="312.525073,305.611744 311.097455,304.608697 309.566388,304.142084 308.155630,303.895343 306.484211,303.832456 303.880364,304.880867 302.721339,304.049877 301.091557,303.418553 299.530281,303.119531 297.237837,303.215153 294.763746,303.993612 293.449422,319.946590 298.155167,320.609480 294.905922,359.695483 294.206764,368.223728 289.643216,367.846992 288.633854,380.121048 291.024122,381.369687 293.066875,381.646842 295.703839,381.476770 297.345046,380.794773 299.187535,381.833076 301.351339,382.363471 303.900096,382.195370 305.255491,381.786812 305.981598,381.470177 315.426826,382.183208 316.064768,374.257225 321.530143,306.367986 312.525073,305.611744"/>
    <poly id="36996303" type="building.commercial" color="255,230,230" fill="1" layer="-1.00" shape="189.587368,273.001271 192.083972,270.797916 192.613339,263.185909 193.285291,253.445337 179.000736,252.184008 166.698664,251.234553 166.263664,256.685690 165.559090,271.044977 171.883377,271.526959 185.404444,272.649517 189.587368,273.001271"/>
    <poly id="392619607" type="landuse.residential" color="235,235,227" fill="1" layer="-3.00" shape="-0.335389,356.773015 0.045647,358.633946 1.001759,360.103680 1.816093,360.697497 3.063864,361.548689 184.414666,375.825050 185.987098,375.712062 187.035911,375.254675 188.102183,374.362920 188.726921,373.458763 189.059894,372.561119 189.157040,372.047078 190.967783,331.813545 194.690618,295.732474 194.536879,293.710670 193.628396,291.939391 192.393469,291.054482 190.938100,290.330280 188.713835,290.135111 9.905400,275.846159 8.476601,276.312078 7.118070,277.188150 6.056530,278.291265 5.454189,280.196436 5.231548,281.169521 -0.335389,356.773015"/>
    <poly id="392619652" type="building.residential" color="255,230,230" fill="1" layer="-1.00" shape="173.283288,332.419673 173.676082,326.902712 174.403762,326.352342 174.629079,322.152183 175.163871,315.697328 186.419603,316.614513 187.915843,316.736907 187.379542,324.949964 186.994924,330.833955 186.812214,333.597693 173.283288,332.419673"/>
    <poly id="43232372" type="building.residential" color="255,230,230" fill="1" layer="-1.00" shape="147.271083,341.323855 146.524854,351.077224 147.585836,351.164813 151.428193,351.468497 151.619572,349.094031 159.440738,349.731746 159.067817,354.313542 172.642447,355.412606 172.396859,358.400302 158.822238,357.301238 151.008118,356.674496 150.235323,366.150266 150.043200,368.491365 120.309644,366.084049 116.623604,365.788026 112.862678,365.482551 113.054784,363.141450 114.014320,351.391456 115.281714,335.795541 115.351542,334.970534 115.947309,327.601840 139.138514,329.476423 139.977325,319.309262 140.981538,307.124300 141.077103,305.931506 141.676391,298.718525 141.867770,296.344059 142.007436,294.694046 142.119384,293.322844 142.284286,291.282799 146.691362,291.640639 153.247569,292.173056 189.694800,295.154050 187.915843,316.736907 186.419603,316.614513 175.163871,315.697328 174.629079,322.152183 174.403762,326.352342 173.676082,326.902712 173.283288,332.419673 167.023456,331.780466 166.822221,334.322066 166.551977,337.421589 172.497942,337.989908 173.882884,339.817315 173.647390,343.561467 147.271083,341.323855"/>
    <poly id="468403260" type="amenity.parking" color="184,184,179" fill="1" layer="-1.00" shape="204.785041,374.814063 315.894187,384.876809 322.299168,304.626058 211.687283,294.718924 209.992944,306.407391 204.785041,374.814063"/>
    <poly id="478632893" type="landuse.commercial" color="209,209,204" fill="1" layer="-3.00" shape="165.559090,271.044977 166.263664,256.685690 166.698664,251.234553 193.285291,253.445337 192.083972,270.797916 189.587368,273.001271 165.559090,271.044977"/>
    <poly id="48818346" type="building.yes" color="255,230,230" fill="1" layer="-1.00" shape="324.326520,281.368586 326.724251,250.970037 328.206453,232.186909 329.233531,219.178049 330.190749,206.994193 309.190185,205.348045 302.749737,204.835090 301.453781,221.310652 300.658882,231.332133 299.701249,243.493752 296.689413,281.661986 321.443595,283.602739 322.741368,285.176193 325.570845,282.676169 324.326520,281.368586"/>
    <poly id="48818347" type="building.yes" color="255,230,230" fill="1" layer="-1.00" shape="296.689413,281.661986 291.459582,281.244463 291.380368,282.258846 289.802697,282.138235 288.585393,282.042973 288.664854,281.039712 283.482766,280.632261 284.985976,261.581580 284.394161,261.528010 285.902682,242.410447 299.701249,243.493752 296.689413,281.661986"/>
    <poly id="521858569" type="amenity.shelter" color="237,199,199" fill="1" layer="-1.00" shape="237.304597,296.094736 237.183022,297.644193 241.759716,297.998334 241.881044,296.437755 237.304597,296.094736"/>
    <poly id="844740667" type="tourism.attraction" color="207,245,201" fill="1" layer="-2.00" shape="308.698654,318.204527 486.344667,331.339506 511.964307,-13.464015 334.367279,-26.590315 308.698654,318.204527"/>
    <poly id="949349574" type="landuse.residential" color="235,235,227" fill="1" layer="-3.00" shape="215.840344,193.019598 216.576657,192.246490 332.393874,201.670584 333.203978,202.075380 333.580866,203.146362 327.708419,284.464586 326.742118,286.188655 325.609931,287.170869 324.618593,287.771603 323.097255,288.350769 213.819232,279.215034 212.479130,278.788701 211.126370,277.795140 210.301130,276.711915 209.851318,275.720462 215.840344,193.019598"/>
    <poi id="1317772759" type="amenity.taxi" color="237,199,199" layer="4.00" x="339.13" y="267.13"/>
    <poi id="1428188960" type="shop.mobile_phone" color="237,199,255" layer="4.00" x="214.32" y="314.63"/>
    <poi id="1552567136" type="amenity.events_venue" color="237,199,199" layer="4.00" x="185.36" y="308.33"/>
    <poi id="1812414059" type="amenity.bank" color="237,199,199" layer="4.00" x="344.53" y="308.28"/>
    <poi id="1812417597" type="amenity.telephone" color="237,199,199" layer="4.00" x="338.73" y="314.04"/>
    <poi id="3332929493" type="amenity.parking_entrance" color="237,199,199" layer="4.00" x="278.34" y="202.89"/>
    <poi id="3332929494" type="amenity.parking_entrance" color="237,199,199" layer="4.00" x="306.12" y="84.25"/>
    <poi id="3657597827" type="amenity.post_box" color="237,199,199" layer="4.00" x="213.28" y="259.98"/>
    <poi id="3787297590" type="shop.beauty" color="237,199,255" layer="4.00" x="266.86" y="308.88"/>
    <poi id="380498035" type="man_made.surveillance" color="255,230,230" layer="4.00" x="229.77" y="322.21"/>
    <poi id="4305985078" type="tourism.museum" color="207,245,201" layer="3.00" x="293.25" y="269.44"/>
    <poi id="4683630505" type="amenity.vending_machine" color="237,199,199" layer="4.00" x="265.16" y="297.65"/>
    <poi id="4683630506" type="amenity.vending_machine" color="237,199,199" layer="4.00" x="378.11" y="291.69"/>
    <poi id="4690301941" type="shop.furniture" color="237,199,255" layer="4.00" x="247.19" y="307.60"/>
    <poi id="4690965393" type="amenity.vending_machine" color="237,199,199" layer="4.00" x="324.33" y="320.95"/>
    <poi id="4756029613" type="natural.tree" color="140,196,107" layer="1.00" x="365.08" y="283.40"/>
    <poi id="4756029614" type="natural.tree" color="140,196,107" layer="1.00" x="366.04" y="273.38"/>
    <poi id="4756029615" type="natural.tree" color="140,196,107" layer="1.00" x="359.70" y="283.15"/>
    <poi id="4756029616" type="natural.tree" color="140,196,107" layer="1.00" x="355.13" y="282.62"/>
    <poi id="4756029617" type="natural.tree" color="140,196,107" layer="1.00" x="350.03" y="282.46"/>
    <poi id="4756029618" type="natural.tree" color="140,196,107" layer="1.00" x="345.20" y="282.03"/>
    <poi id="4756029619" type="natural.tree" color="140,196,107" layer="1.00" x="345.63" y="276.84"/>
    <poi id="4756029620" type="natural.tree" color="140,196,107" layer="1.00" x="350.19" y="277.01"/>
    <poi id="4756031721" type="natural.tree" color="140,196,107" layer="1.00" x="355.66" y="277.71"/>
    <poi id="4756031722" type="natural.tree" color="140,196,107" layer="1.00" x="360.32" y="278.24"/>
    <poi id="4756031723" type="natural.tree" color="140,196,107" layer="1.00" x="360.94" y="273.23"/>
    <poi id="4756031724" type="natural.tree" color="140,196,107" layer="1.00" x="355.83" y="272.80"/>
    <poi id="4756031725" type="natural.tree" color="140,196,107" layer="1.00" x="350.72" y="272.28"/>
    <poi id="4756031726" type="natural.tree" color="140,196,107" layer="1.00" x="346.35" y="272.29"/>
    <poi id="5084137040" type="amenity.telephone" color="237,199,199" layer="4.00" x="232.24" y="295.66"/>
    <poi id="535088859" type="shop.clothes" color="237,199,255" layer="4.00" x="231.79" y="38.84"/>
    <poi id="5633363668" type="natural.tree" color="140,196,107" layer="1.00" x="346.59" y="256.48"/>
    <poi id="5633363674" type="amenity.bench" color="237,199,199" layer="4.00" x="350.23" y="279.79"/>
    <poi id="5633363677" type="amenity.waste_basket" color="237,199,199" layer="4.00" x="340.20" y="256.99"/>
    <poi id="5633363682" type="amenity.bench" color="237,199,199" layer="4.00" x="348.88" y="261.86"/>
    <poi id="5633363689" type="natural.tree" color="140,196,107" layer="1.00" x="350.76" y="267.78"/>
    <poi id="5633363695" type="amenity.bench" color="237,199,199" layer="4.00" x="355.38" y="280.14"/>
    <poi id="5633363699" type="natural.tree" color="140,196,107" layer="1.00" x="346.26" y="266.69"/>
    <poi id="5633363705" type="amenity.bench" color="237,199,199" layer="4.00" x="349.70" y="256.98"/>
    <poi id="5633363715" type="natural.tree" color="140,196,107" layer="1.00" x="350.87" y="261.99"/>
    <poi id="5633365923" type="amenity.bench" color="237,199,199" layer="4.00" x="360.18" y="280.75"/>
    <poi id="5633365927" type="natural.tree" color="140,196,107" layer="1.00" x="346.53" y="261.19"/>
    <poi id="5633365933" type="amenity.bench" color="237,199,199" layer="4.00" x="347.98" y="277.00"/>
    <poi id="5633365941" type="natural.tree" color="140,196,107" layer="1.00" x="353.44" y="257.25"/>
    <poi id="587625195" type="natural.tree" color="140,196,107" layer="1.00" x="376.51" y="263.86"/>
    <poi id="587625196" type="natural.tree" color="140,196,107" layer="1.00" x="370.99" y="268.17"/>
    <poi id="587625197" type="natural.tree" color="140,196,107" layer="1.00" x="371.32" y="263.35"/>
    <poi id="587625198" type="natural.tree" color="140,196,107" layer="1.00" x="376.08" y="268.59"/>
    <poi id="587625199" type="natural.tree" color="140,196,107" layer="1.00" x="375.76" y="274.37"/>
    <poi id="587625200" type="natural.tree" color="140,196,107" layer="1.00" x="375.09" y="284.25"/>
    <poi id="587625201" type="natural.tree" color="140,196,107" layer="1.00" x="370.93" y="273.68"/>
    <poi id="587625202" type="natural.tree" color="140,196,107" layer="1.00" x="370.36" y="284.00"/>
    <poi id="587625203" type="natural.tree" color="140,196,107" layer="1.00" x="370.51" y="278.76"/>
    <poi id="587625204" type="natural.tree" color="140,196,107" layer="1.00" x="375.51" y="279.18"/>
    <poi id="619366460" type="amenity.cafe" color="237,199,199" layer="4.00" x="288.45" y="276.93"/>
    <poi id="619366460#1" type="shop.confectionery" color="237,199,255" layer="4.00" x="288.45" y="276.93"/>
    <poi id="6788159718" type="tourism.gallery" color="207,245,201" layer="3.00" x="187.50" y="297.68"/>
    <poi id="6801285875" type="amenity.bank" color="237,199,199" layer="4.00" x="215.16" y="302.30"/>
    <poi id="86001794" type="amenity.restaurant" color="237,199,199" layer="4.00" x="187.38" y="324.95"/>
    <poi id="86001798" type="amenity.restaurant" color="237,199,199" layer="4.00" x="284.65" y="310.32"/>
    <poi id="86001800" type="amenity.restaurant" color="237,199,199" layer="4.00" x="310.81" y="313.51"/>
    <poi id="86001813" type="amenity.restaurant" color="237,199,199" layer="4.00" x="320.51" y="274.53"/>
    <poi id="8982992742" type="historic.memorial" color="128,255,128" layer="4.00" x="342.16" y="332.47"/>
    <poi id="8982992743" type="historic.memorial" color="128,255,128" layer="4.00" x="316.06" y="374.26"/>
</additional>
