<?xml version="1.0" encoding="UTF-8"?>

<!-- generated on Wed Mar 16 00:51:39 2022 by Eclipse SUMO netconvert Version 1.8.0
<configuration xmlns:xsi="http://www.w3.org/2001/XMLSchema-instance" xsi:noNamespaceSchemaLocation="http://sumo.dlr.de/xsd/netconvertConfiguration.xsd">

    <input>
        <type-files value="/usr/share/sumo/data/typemap/osmNetconvert.typ.xml"/>
        <osm-files value="osm_bbox.osm.xml"/>
    </input>

    <output>
        <output-file value="osm.net.xml"/>
        <output.street-names value="true"/>
        <output.original-names value="true"/>
    </output>

    <projection>
        <proj.utm value="true"/>
    </projection>

    <processing>
        <geometry.remove value="true"/>
        <roundabouts.guess value="true"/>
    </processing>

    <tls_building>
        <tls.discard-simple value="true"/>
        <tls.join value="true"/>
        <tls.guess-signals value="true"/>
        <tls.default-type value="actuated"/>
    </tls_building>

    <ramp_guessing>
        <ramps.guess value="true"/>
    </ramp_guessing>

    <junctions>
        <junctions.join value="true"/>
        <junctions.corner-detail value="5"/>
    </junctions>

    <report>
        <verbose value="true"/>
        <aggregate-warnings value="5"/>
    </report>

</configuration>
-->

<net version="1.6" junctionCornerDetail="5" limitTurnSpeed="5.50" xmlns:xsi="http://www.w3.org/2001/XMLSchema-instance" xsi:noNamespaceSchemaLocation="http://sumo.dlr.de/xsd/net_file.xsd">

    <location netOffset="-390490.87,-5819228.12" convBoundary="0.00,0.00,464.77,455.63" origBoundary="13.386209,52.512229,13.393046,52.516315" projParameter="+proj=utm +zone=33 +ellps=WGS84 +datum=WGS84 +units=m +no_defs"/>

    <type id="highway.bridleway" priority="1" numLanes="1" speed="2.78" allow="pedestrian" oneway="1" width="2.00"/>
    <type id="highway.bus_guideway" priority="1" numLanes="1" speed="27.78" allow="bus" oneway="1"/>
    <type id="highway.cycleway" priority="1" numLanes="1" speed="8.33" allow="bicycle" oneway="0" width="1.00"/>
    <type id="highway.footway" priority="1" numLanes="1" speed="2.78" allow="pedestrian" oneway="1" width="2.00"/>
    <type id="highway.ford" priority="1" numLanes="1" speed="2.78" allow="army" oneway="0"/>
    <type id="highway.living_street" priority="2" numLanes="1" speed="2.78" disallow="tram rail_urban rail rail_electric rail_fast ship" oneway="0"/>
    <type id="highway.motorway" priority="14" numLanes="2" speed="39.44" allow="private emergency authority army vip passenger hov taxi bus coach delivery truck trailer motorcycle evehicle custom1 custom2" oneway="1"/>
    <type id="highway.motorway_link" priority="9" numLanes="1" speed="22.22" allow="private emergency authority army vip passenger hov taxi bus coach delivery truck trailer motorcycle evehicle custom1 custom2" oneway="1"/>
    <type id="highway.path" priority="1" numLanes="1" speed="2.78" allow="pedestrian bicycle" oneway="0" width="2.00"/>
    <type id="highway.pedestrian" priority="1" numLanes="1" speed="2.78" allow="pedestrian" oneway="1" width="2.00"/>
    <type id="highway.primary" priority="12" numLanes="2" speed="27.78" disallow="tram rail_urban rail rail_electric rail_fast ship" oneway="0"/>
    <type id="highway.primary_link" priority="7" numLanes="1" speed="22.22" disallow="tram rail_urban rail rail_electric rail_fast ship" oneway="0"/>
    <type id="highway.raceway" priority="15" numLanes="2" speed="83.33" allow="vip" oneway="0"/>
    <type id="highway.residential" priority="3" numLanes="1" speed="13.89" disallow="tram rail_urban rail rail_electric rail_fast ship" oneway="0"/>
    <type id="highway.secondary" priority="11" numLanes="1" speed="27.78" disallow="tram rail_urban rail rail_electric rail_fast ship" oneway="0"/>
    <type id="highway.secondary_link" priority="6" numLanes="1" speed="22.22" disallow="tram rail_urban rail rail_electric rail_fast ship" oneway="0"/>
    <type id="highway.service" priority="1" numLanes="1" speed="5.56" allow="pedestrian delivery bicycle" oneway="0"/>
    <type id="highway.stairs" priority="1" numLanes="1" speed="1.39" allow="pedestrian" oneway="1" width="2.00"/>
    <type id="highway.step" priority="1" numLanes="1" speed="1.39" allow="pedestrian" oneway="1" width="2.00"/>
    <type id="highway.steps" priority="1" numLanes="1" speed="1.39" allow="pedestrian" oneway="1" width="2.00"/>
    <type id="highway.tertiary" priority="10" numLanes="1" speed="22.22" disallow="tram rail_urban rail rail_electric rail_fast ship" oneway="0"/>
    <type id="highway.tertiary_link" priority="5" numLanes="1" speed="22.22" disallow="tram rail_urban rail rail_electric rail_fast ship" oneway="0"/>
    <type id="highway.track" priority="1" numLanes="1" speed="5.56" allow="pedestrian motorcycle moped bicycle" oneway="0"/>
    <type id="highway.trunk" priority="13" numLanes="2" speed="27.78" disallow="pedestrian bicycle tram rail_urban rail rail_electric rail_fast ship" oneway="0"/>
    <type id="highway.trunk_link" priority="8" numLanes="1" speed="22.22" disallow="pedestrian bicycle tram rail_urban rail rail_electric rail_fast ship" oneway="0"/>
    <type id="highway.unclassified" priority="4" numLanes="1" speed="13.89" disallow="tram rail_urban rail rail_electric rail_fast ship" oneway="0"/>
    <type id="highway.unsurfaced" priority="1" numLanes="1" speed="8.33" disallow="tram rail_urban rail rail_electric rail_fast ship" oneway="0"/>
    <type id="railway.highspeed" priority="21" numLanes="1" speed="69.44" allow="rail_fast" oneway="1"/>
    <type id="railway.light_rail" priority="19" numLanes="1" speed="27.78" allow="rail_urban" oneway="1"/>
    <type id="railway.preserved" priority="16" numLanes="1" speed="27.78" allow="rail" oneway="1"/>
    <type id="railway.rail" priority="20" numLanes="1" speed="44.44" allow="rail" oneway="1"/>
    <type id="railway.subway" priority="18" numLanes="1" speed="27.78" allow="rail_urban" oneway="1"/>
    <type id="railway.tram" priority="17" numLanes="1" speed="13.89" allow="tram" oneway="1"/>

    <edge id=":1419121873_0" function="internal">
        <lane id=":1419121873_0_0" index="0" disallow="tram rail_urban rail rail_electric rail_fast ship" speed="3.65" length="4.67" shape="316.99,455.77 316.09,456.89 315.26,457.22 314.50,456.75 313.80,455.49"/>
    </edge>
    <edge id=":20246257_0" function="internal">
        <lane id=":20246257_0_0" index="0" disallow="tram rail_urban rail rail_electric rail_fast ship" speed="3.72" length="4.62" shape="196.11,384.58 195.22,385.70 194.40,386.03 193.64,385.57 192.95,384.32"/>
    </edge>
    <edge id=":2071423355_0" function="internal">
        <lane id=":2071423355_0_0" index="0" disallow="tram rail_urban rail rail_electric rail_fast ship" speed="13.89" length="5.18" shape="192.74,359.29 192.73,357.75 192.76,356.70 192.84,355.65 192.99,354.12"/>
    </edge>
    <edge id=":2071423357_0" function="internal">
        <lane id=":2071423357_0_0" index="0" disallow="tram rail_urban rail rail_electric rail_fast ship" speed="13.89" length="5.20" shape="201.11,354.57 200.98,356.10 200.87,357.16 200.71,358.20 200.45,359.72"/>
    </edge>
    <edge id=":25661386_0" function="internal">
        <lane id=":25661386_0_0" index="0" disallow="tram rail_urban rail rail_electric rail_fast ship" speed="3.65" length="4.67" shape="-0.13,270.01 -1.26,269.11 -1.59,268.28 -1.13,267.52 0.13,266.82"/>
    </edge>
    <edge id=":283039343_0" function="internal">
        <lane id=":283039343_0_0" index="0" disallow="tram rail_urban rail rail_electric rail_fast ship" speed="3.65" length="4.67" shape="355.02,-0.13 355.92,-1.26 356.75,-1.60 357.51,-1.13 358.21,0.13"/>
    </edge>
    <edge id=":283039344_0" function="internal">
        <lane id=":283039344_0_0" index="0" disallow="tram rail_urban rail rail_electric rail_fast ship" speed="3.65" length="4.67" shape="464.20,304.06 465.34,304.95 465.67,305.78 465.21,306.54 463.96,307.25"/>
    </edge>
    <edge id=":cluster_2071423335_25662916_4591015614_4591015622_4591015626_5824647398_0" function="internal">
        <lane id=":cluster_2071423335_25662916_4591015614_4591015622_4591015626_5824647398_0_0" index="0" disallow="tram rail_urban rail rail_electric rail_fast ship" speed="9.67" length="23.79" shape="216.26,291.32 209.11,291.68 204.18,293.97 201.46,298.19 200.96,304.34"/>
    </edge>
    <edge id=":cluster_2071423335_25662916_4591015614_4591015622_4591015626_5824647398_1" function="internal">
        <lane id=":cluster_2071423335_25662916_4591015614_4591015622_4591015626_5824647398_1_0" index="0" disallow="tram rail_urban rail rail_electric rail_fast ship" speed="11.11" length="26.61" shape="216.26,291.32 189.71,289.21"/>
        <lane id=":cluster_2071423335_25662916_4591015614_4591015622_4591015626_5824647398_1_1" index="1" disallow="tram rail_urban rail rail_electric rail_fast ship" speed="11.11" length="26.61" shape="216.49,288.13 189.98,286.02"/>
    </edge>
    <edge id=":cluster_2071423335_25662916_4591015614_4591015622_4591015626_5824647398_3" function="internal">
        <lane id=":cluster_2071423335_25662916_4591015614_4591015622_4591015626_5824647398_3_0" index="0" disallow="tram rail_urban rail rail_electric rail_fast ship" speed="3.65" length="2.34" shape="216.49,288.13 215.36,287.24 215.02,286.42"/>
    </edge>
    <edge id=":cluster_2071423335_25662916_4591015614_4591015622_4591015626_5824647398_10" function="internal">
        <lane id=":cluster_2071423335_25662916_4591015614_4591015622_4591015626_5824647398_10_0" index="0" disallow="tram rail_urban rail rail_electric rail_fast ship" speed="3.65" length="2.34" shape="215.02,286.42 215.47,285.65 216.73,284.94"/>
    </edge>
    <edge id=":cluster_2071423335_25662916_4591015614_4591015622_4591015626_5824647398_4" function="internal">
        <lane id=":cluster_2071423335_25662916_4591015614_4591015622_4591015626_5824647398_4_0" index="0" disallow="tram rail_urban rail rail_electric rail_fast ship" speed="11.11" length="26.53" shape="190.53,279.64 216.96,281.74"/>
        <lane id=":cluster_2071423335_25662916_4591015614_4591015622_4591015626_5824647398_4_1" index="1" disallow="tram rail_urban rail rail_electric rail_fast ship" speed="11.11" length="26.53" shape="190.26,282.83 216.73,284.94"/>
    </edge>
    <edge id=":cluster_2071423335_25662916_4591015614_4591015622_4591015626_5824647398_6" function="internal">
        <lane id=":cluster_2071423335_25662916_4591015614_4591015622_4591015626_5824647398_6_0" index="0" disallow="tram rail_urban rail rail_electric rail_fast ship" speed="11.34" length="4.73" shape="190.26,282.83 194.27,284.46 194.51,284.78"/>
    </edge>
    <edge id=":cluster_2071423335_25662916_4591015614_4591015622_4591015626_5824647398_7" function="internal">
        <lane id=":cluster_2071423335_25662916_4591015614_4591015622_4591015626_5824647398_7_0" index="0" disallow="tram rail_urban rail rail_electric rail_fast ship" speed="3.65" length="2.34" shape="190.26,282.83 191.38,283.73 191.71,284.56"/>
    </edge>
    <edge id=":cluster_2071423335_25662916_4591015614_4591015622_4591015626_5824647398_11" function="internal">
        <lane id=":cluster_2071423335_25662916_4591015614_4591015622_4591015626_5824647398_11_0" index="0" disallow="tram rail_urban rail rail_electric rail_fast ship" speed="11.34" length="21.00" shape="194.51,284.78 197.39,288.59 199.62,295.22 200.96,304.34"/>
    </edge>
    <edge id=":cluster_2071423335_25662916_4591015614_4591015622_4591015626_5824647398_12" function="internal">
        <lane id=":cluster_2071423335_25662916_4591015614_4591015622_4591015626_5824647398_12_0" index="0" disallow="tram rail_urban rail rail_electric rail_fast ship" speed="3.65" length="2.34" shape="191.71,284.56 191.25,285.33 189.98,286.02"/>
    </edge>
    <edge id=":cluster_2071423335_25662916_4591015614_4591015622_4591015626_5824647398_8" function="internal">
        <lane id=":cluster_2071423335_25662916_4591015614_4591015622_4591015626_5824647398_8_0" index="0" disallow="tram rail_urban rail rail_electric rail_fast ship" speed="9.39" length="22.40" shape="200.96,304.34 201.57,298.19 199.90,293.62 195.95,290.63 189.71,289.21"/>
    </edge>
    <edge id=":cluster_2071423335_25662916_4591015614_4591015622_4591015626_5824647398_9" function="internal">
        <lane id=":cluster_2071423335_25662916_4591015614_4591015622_4591015626_5824647398_9_0" index="0" disallow="tram rail_urban rail rail_electric rail_fast ship" speed="11.11" length="27.01" shape="200.96,304.34 203.86,295.56 207.45,289.40 211.74,285.86 216.73,284.94"/>
    </edge>
    <edge id=":cluster_25662710_5984014363_0" function="internal">
        <lane id=":cluster_25662710_5984014363_0_0" index="0" disallow="tram rail_urban rail rail_electric rail_fast ship" speed="8.33" length="16.08" shape="336.11,280.50 335.94,286.47 336.64,290.79 338.19,293.47 340.61,294.51"/>
    </edge>
    <edge id=":cluster_25662710_5984014363_1" function="internal">
        <lane id=":cluster_25662710_5984014363_1_0" index="0" disallow="tram rail_urban rail rail_electric rail_fast ship" speed="8.33" length="25.72" shape="336.11,280.50 333.87,306.13"/>
    </edge>
    <edge id=":cluster_25662710_5984014363_2" function="internal">
        <lane id=":cluster_25662710_5984014363_2_0" index="0" disallow="tram rail_urban rail rail_electric rail_fast ship" speed="8.33" length="10.89" shape="336.11,280.50 334.92,287.79 333.58,291.03"/>
    </edge>
    <edge id=":cluster_25662710_5984014363_3" function="internal">
        <lane id=":cluster_25662710_5984014363_3_0" index="0" disallow="tram rail_urban rail rail_electric rail_fast ship" speed="3.65" length="2.34" shape="336.11,280.50 335.21,281.63 334.38,281.95"/>
    </edge>
    <edge id=":cluster_25662710_5984014363_16" function="internal">
        <lane id=":cluster_25662710_5984014363_16_0" index="0" disallow="tram rail_urban rail rail_electric rail_fast ship" speed="8.33" length="10.19" shape="333.58,291.03 332.82,292.90 329.81,295.82 325.90,296.56"/>
    </edge>
    <edge id=":cluster_25662710_5984014363_17" function="internal">
        <lane id=":cluster_25662710_5984014363_17_0" index="0" disallow="tram rail_urban rail rail_electric rail_fast ship" speed="3.65" length="2.34" shape="334.38,281.95 333.61,281.49 332.92,280.22"/>
    </edge>
    <edge id=":cluster_25662710_5984014363_4" function="internal">
        <lane id=":cluster_25662710_5984014363_4_0" index="0" disallow="tram rail_urban rail rail_electric rail_fast ship" speed="7.76" length="13.21" shape="326.42,290.18 328.92,289.73 330.84,287.92 332.17,284.75 332.92,280.22"/>
    </edge>
    <edge id=":cluster_25662710_5984014363_5" function="internal">
        <lane id=":cluster_25662710_5984014363_5_0" index="0" disallow="tram rail_urban rail rail_electric rail_fast ship" speed="8.33" length="14.92" shape="326.42,290.18 331.05,291.06 334.42,292.43 337.33,293.76 340.61,294.51"/>
    </edge>
    <edge id=":cluster_25662710_5984014363_6" function="internal">
        <lane id=":cluster_25662710_5984014363_6_0" index="0" disallow="tram rail_urban rail rail_electric rail_fast ship" speed="8.33" length="5.29" shape="326.16,293.37 329.98,294.44 330.93,295.35"/>
    </edge>
    <edge id=":cluster_25662710_5984014363_7" function="internal">
        <lane id=":cluster_25662710_5984014363_7_0" index="0" disallow="tram rail_urban rail rail_electric rail_fast ship" speed="3.65" length="2.34" shape="326.16,293.37 327.29,294.26 327.62,295.09"/>
    </edge>
    <edge id=":cluster_25662710_5984014363_18" function="internal">
        <lane id=":cluster_25662710_5984014363_18_0" index="0" disallow="tram rail_urban rail rail_electric rail_fast ship" speed="8.33" length="11.67" shape="330.93,295.35 332.54,296.92 333.84,300.82 333.87,306.13"/>
    </edge>
    <edge id=":cluster_25662710_5984014363_19" function="internal">
        <lane id=":cluster_25662710_5984014363_19_0" index="0" disallow="tram rail_urban rail rail_electric rail_fast ship" speed="3.65" length="2.34" shape="327.62,295.09 327.16,295.86 325.90,296.56"/>
    </edge>
    <edge id=":cluster_25662710_5984014363_8" function="internal">
        <lane id=":cluster_25662710_5984014363_8_0" index="0" disallow="tram rail_urban rail rail_electric rail_fast ship" speed="6.47" length="9.03" shape="330.69,305.81 330.58,303.33 329.70,301.49 328.06,300.30 325.64,299.75"/>
    </edge>
    <edge id=":cluster_25662710_5984014363_9" function="internal">
        <lane id=":cluster_25662710_5984014363_9_0" index="0" disallow="tram rail_urban rail rail_electric rail_fast ship" speed="8.33" length="25.68" shape="330.69,305.81 332.92,280.22"/>
    </edge>
    <edge id=":cluster_25662710_5984014363_10" function="internal">
        <lane id=":cluster_25662710_5984014363_10_0" index="0" disallow="tram rail_urban rail rail_electric rail_fast ship" speed="8.33" length="7.72" shape="330.69,305.81 331.76,300.61 332.93,298.50"/>
    </edge>
    <edge id=":cluster_25662710_5984014363_11" function="internal">
        <lane id=":cluster_25662710_5984014363_11_0" index="0" disallow="tram rail_urban rail rail_electric rail_fast ship" speed="3.65" length="2.34" shape="330.69,305.81 331.60,304.69 332.44,304.37"/>
    </edge>
    <edge id=":cluster_25662710_5984014363_20" function="internal">
        <lane id=":cluster_25662710_5984014363_20_0" index="0" disallow="tram rail_urban rail rail_electric rail_fast ship" speed="8.33" length="9.22" shape="332.93,298.50 333.77,297.00 336.72,294.97 340.61,294.51"/>
    </edge>
    <edge id=":cluster_25662710_5984014363_21" function="internal">
        <lane id=":cluster_25662710_5984014363_21_0" index="0" disallow="tram rail_urban rail rail_electric rail_fast ship" speed="3.65" length="2.34" shape="332.44,304.37 333.19,304.85 333.87,306.13"/>
    </edge>
    <edge id=":cluster_25662710_5984014363_12" function="internal">
        <lane id=":cluster_25662710_5984014363_12_0" index="0" disallow="tram rail_urban rail rail_electric rail_fast ship" speed="7.43" length="11.87" shape="340.33,297.70 337.83,298.07 335.93,299.59 334.61,302.28 333.87,306.13"/>
    </edge>
    <edge id=":cluster_25662710_5984014363_13" function="internal">
        <lane id=":cluster_25662710_5984014363_13_0" index="0" disallow="tram rail_urban rail rail_electric rail_fast ship" speed="8.33" length="14.47" shape="340.33,297.70 325.90,296.56"/>
    </edge>
    <edge id=":cluster_25662710_5984014363_14" function="internal">
        <lane id=":cluster_25662710_5984014363_14_0" index="0" disallow="tram rail_urban rail rail_electric rail_fast ship" speed="8.33" length="6.29" shape="340.33,297.70 336.53,296.35 335.18,294.54"/>
    </edge>
    <edge id=":cluster_25662710_5984014363_15" function="internal">
        <lane id=":cluster_25662710_5984014363_15_0" index="0" disallow="tram rail_urban rail rail_electric rail_fast ship" speed="3.65" length="2.55" shape="340.33,297.70 339.20,296.80 338.88,295.96 338.99,295.78"/>
    </edge>
    <edge id=":cluster_25662710_5984014363_22" function="internal">
        <lane id=":cluster_25662710_5984014363_22_0" index="0" disallow="tram rail_urban rail rail_electric rail_fast ship" speed="8.33" length="14.83" shape="335.18,294.54 334.03,292.99 332.83,287.61 332.92,280.22"/>
    </edge>
    <edge id=":cluster_25662710_5984014363_23" function="internal">
        <lane id=":cluster_25662710_5984014363_23_0" index="0" disallow="tram rail_urban rail rail_electric rail_fast ship" speed="3.65" length="2.12" shape="338.99,295.78 339.35,295.20 340.61,294.51"/>
    </edge>

    <edge id="-22972473#2" from="283039343" to="cluster_25662710_5984014363" name="Charlottenstraße" priority="3" type="highway.residential" shape="356.62,0.00 355.85,9.75 352.78,48.68 348.80,99.19 341.28,194.56 334.80,276.85 334.54,280.12 334.08,285.34">
        <lane id="-22972473#2_0" index="0" disallow="tram rail_urban rail rail_electric rail_fast ship" speed="8.33" length="281.25" shape="358.21,0.13 357.45,9.88 354.37,48.81 350.40,99.31 342.88,194.69 336.39,276.98 336.13,280.25 336.11,280.50">
            <param key="origId" value="22972473"/>
        </lane>
        <param key="origTo" value="5984014363"/>
    </edge>
    <edge id="-243854725#2" from="1419121873" to="cluster_25662710_5984014363" name="Charlottenstraße" priority="3" type="highway.residential" shape="315.40,455.63 319.90,403.81 323.63,392.38 326.65,362.21 331.81,310.68 332.21,306.70 333.32,295.56">
        <lane id="-243854725#2_0" index="0" disallow="tram rail_urban rail rail_electric rail_fast ship" speed="8.33" length="150.91" shape="313.80,455.49 318.32,403.48 322.06,392.05 325.06,362.05 330.22,310.52 330.61,306.54 330.69,305.81">
            <param key="origId" value="243854725"/>
        </lane>
        <param key="origTo" value="25662710"/>
    </edge>
    <edge id="-292429056#3" from="cluster_2071423335_25662916_4591015614_4591015622_4591015626_5824647398" to="25661386" name="Französische Straße" priority="10" type="highway.tertiary" shape="192.74,284.65 187.57,284.21 161.29,282.10 14.92,269.67 11.69,269.40 0.00,268.41">
        <lane id="-292429056#3_0" index="0" disallow="tram rail_urban rail rail_electric rail_fast ship" speed="13.89" length="190.79" shape="189.71,289.21 187.17,288.99 160.90,286.89 14.52,274.45 11.29,274.18 -0.40,273.20">
            <param key="origId" value="292429056"/>
        </lane>
        <lane id="-292429056#3_1" index="1" disallow="tram rail_urban rail rail_electric rail_fast ship" speed="13.89" length="190.79" shape="189.98,286.02 187.43,285.80 161.16,283.70 14.79,271.27 11.56,270.99 -0.13,270.01">
            <param key="origId" value="292429056"/>
        </lane>
        <param key="origFrom" value="4591015614"/>
    </edge>
    <edge id="-35557143#4" from="cluster_25662710_5984014363" to="cluster_2071423335_25662916_4591015614_4591015622_4591015626_5824647398" name="Französische Straße" priority="10" type="highway.tertiary" shape="333.32,295.56 321.42,294.59 316.78,294.21 251.90,288.92 236.45,287.95 216.97,286.56 213.92,286.34">
        <lane id="-35557143#4_0" index="0" disallow="tram rail_urban rail rail_electric rail_fast ship" speed="8.33" length="109.71" shape="325.64,299.75 321.03,299.37 316.39,299.00 251.55,293.70 236.13,292.74 216.62,291.35 216.26,291.32">
            <param key="origId" value="35557143"/>
        </lane>
        <lane id="-35557143#4_1" index="1" disallow="tram rail_urban rail rail_electric rail_fast ship" speed="8.33" length="109.71" shape="325.90,296.56 321.29,296.18 316.65,295.81 251.78,290.51 236.35,289.54 216.85,288.15 216.49,288.13">
            <param key="origId" value="35557143"/>
        </lane>
        <param key="origFrom" value="25662710"/>
        <param key="origTo" value="4591015622"/>
    </edge>
    <edge id="-389101365#2" from="283039344" to="cluster_25662710_5984014363" name="Französische Straße" priority="10" type="highway.tertiary" shape="464.08,305.65 452.15,304.73 347.96,296.69 343.30,296.33 333.32,295.56">
        <lane id="-389101365#2_0" index="0" disallow="tram rail_urban rail rail_electric rail_fast ship" speed="8.33" length="124.00" shape="463.96,307.25 452.03,306.32 347.84,298.28 343.18,297.92 340.33,297.70">
            <param key="origId" value="389101365"/>
        </lane>
        <param key="origTo" value="25662710"/>
    </edge>
    <edge id="1012772442" from="9343704424" to="cluster_25662710_5984014363" priority="1" type="highway.footway" spreadType="center" shape="464.77,296.67 459.75,296.24 381.73,289.56 336.85,285.59 334.08,285.34">
        <lane id="1012772442_0" index="0" allow="pedestrian" speed="2.78" length="123.85" width="2.00" shape="464.77,296.67 459.75,296.24 381.73,289.56 341.38,285.99">
            <param key="origId" value="1012772442"/>
        </lane>
        <param key="origTo" value="5984014363"/>
    </edge>
    <edge id="171423001#0" from="20246257" to="2071423355" name="Friedrichstraße" priority="10" type="highway.tertiary" spreadType="center" shape="192.95,384.32 192.72,356.70">
        <lane id="171423001#0_0" index="0" disallow="tram rail_urban rail rail_electric rail_fast ship" speed="13.89" length="25.04" shape="192.95,384.32 192.74,359.29">
            <param key="origId" value="171423001"/>
        </lane>
    </edge>
    <edge id="171423001#1" from="2071423355" to="cluster_2071423335_25662916_4591015614_4591015622_4591015626_5824647398" name="Friedrichstraße" priority="10" type="highway.tertiary" spreadType="center" shape="192.72,356.70 194.15,342.96 195.23,327.04 200.96,304.34">
        <lane id="171423001#1_0" index="0" disallow="tram rail_urban rail rail_electric rail_fast ship" speed="13.89" length="50.59" shape="192.99,354.12 194.15,342.96 195.23,327.04 200.96,304.34">
            <param key="origId" value="171423001"/>
        </lane>
        <param key="origTo" value="2071423335"/>
    </edge>
    <edge id="196850609#0" from="cluster_2071423335_25662916_4591015614_4591015622_4591015626_5824647398" to="2071423357" name="Friedrichstraße" priority="10" type="highway.tertiary" spreadType="center" shape="200.96,304.34 202.98,327.82 201.98,343.24 200.92,357.04">
        <lane id="196850609#0_0" index="0" disallow="tram rail_urban rail rail_electric rail_fast ship" speed="13.89" length="50.38" shape="200.96,304.34 202.98,327.82 201.98,343.24 201.11,354.57">
            <param key="origId" value="196850609"/>
        </lane>
        <param key="origFrom" value="2071423335"/>
    </edge>
    <edge id="196850609#1" from="2071423357" to="20246257" name="Friedrichstraße" priority="10" type="highway.tertiary" spreadType="center" shape="200.92,357.04 196.11,384.58">
        <lane id="196850609#1_0" index="0" disallow="tram rail_urban rail rail_electric rail_fast ship" speed="13.89" length="25.23" shape="200.45,359.72 196.11,384.58">
            <param key="origId" value="196850609"/>
        </lane>
    </edge>
    <edge id="196850622" from="4591015619" to="2071423309" priority="1" type="highway.footway" spreadType="center" shape="211.51,275.16 211.01,273.10 214.20,229.69 216.21,202.25 215.75,202.03 212.84,201.73 210.18,201.40 208.63,201.29 206.93,201.13 204.69,200.94">
        <lane id="196850622_0" index="0" allow="pedestrian" speed="2.78" length="80.43" width="2.00" shape="211.07,272.32 214.20,229.69 216.21,202.25 215.75,202.03 212.84,201.73 210.18,201.40 208.63,201.29 206.93,201.13 206.14,201.06">
            <param key="origId" value="196850622"/>
        </lane>
    </edge>
    <edge id="196850626#1" from="2071423355" to="2071423357" priority="1" type="highway.footway" spreadType="center" shape="192.72,356.70 194.94,356.80 196.83,356.88 198.42,356.94 200.92,357.04">
        <lane id="196850626#1_0" index="0" allow="pedestrian" speed="2.78" length="1.79" width="2.00" shape="195.88,356.84 196.83,356.88 197.67,356.91">
            <param key="origId" value="196850626"/>
        </lane>
    </edge>
    <edge id="196850626#2" from="2071423357" to="4591015625" priority="1" type="highway.footway" spreadType="center" shape="200.92,357.04 203.77,357.29 204.33,356.92 205.44,343.42 209.09,299.33 210.12,296.40">
        <lane id="196850626#2_0" index="0" allow="pedestrian" speed="2.78" length="60.22" width="2.00" shape="203.69,357.28 204.33,356.92 205.44,343.42 209.09,299.33 209.65,297.73">
            <param key="origId" value="196850626"/>
        </lane>
    </edge>
    <edge id="22972473#1" from="cluster_25662710_5984014363" to="283039343" name="Charlottenstraße" priority="3" type="highway.residential" shape="334.08,285.34 334.54,280.12 334.80,276.85 341.28,194.56 348.80,99.19 352.78,48.68 355.85,9.75 356.62,0.00">
        <lane id="22972473#1_0" index="0" disallow="tram rail_urban rail rail_electric rail_fast ship" speed="8.33" length="281.22" shape="332.92,280.22 332.94,279.98 333.20,276.73 339.69,194.44 347.21,99.06 351.18,48.55 354.26,9.63 355.02,-0.13">
            <param key="origId" value="22972473"/>
        </lane>
        <param key="origFrom" value="5984014363"/>
    </edge>
    <edge id="243854725#0" from="cluster_25662710_5984014363" to="1419121873" name="Charlottenstraße" priority="3" type="highway.residential" shape="333.32,295.56 332.21,306.70 331.81,310.68 326.65,362.21 323.63,392.38 319.90,403.81 315.40,455.63">
        <lane id="243854725#0_0" index="0" disallow="tram rail_urban rail rail_electric rail_fast ship" speed="8.33" length="150.86" shape="333.87,306.13 333.80,306.86 333.40,310.84 328.25,362.36 325.21,392.72 321.47,404.13 316.99,455.77">
            <param key="origId" value="243854725"/>
        </lane>
        <param key="origFrom" value="25662710"/>
    </edge>
    <edge id="292429056#0" from="25661386" to="cluster_2071423335_25662916_4591015614_4591015622_4591015626_5824647398" name="Französische Straße" priority="10" type="highway.tertiary" shape="0.00,268.41 11.69,269.40 14.92,269.67 161.29,282.10 187.57,284.21 192.74,284.65">
        <lane id="292429056#0_0" index="0" disallow="tram rail_urban rail rail_electric rail_fast ship" speed="13.89" length="190.80" shape="0.40,263.63 12.10,264.62 15.33,264.89 161.69,277.32 187.95,279.42 190.53,279.64">
            <param key="origId" value="292429056"/>
        </lane>
        <lane id="292429056#0_1" index="1" disallow="tram rail_urban rail rail_electric rail_fast ship" speed="13.89" length="190.80" shape="0.13,266.82 11.83,267.80 15.06,268.08 161.43,280.51 187.70,282.61 190.26,282.83">
            <param key="origId" value="292429056"/>
        </lane>
        <param key="origTo" value="4591015614"/>
    </edge>
    <edge id="35557143#1" from="cluster_2071423335_25662916_4591015614_4591015622_4591015626_5824647398" to="cluster_25662710_5984014363" name="Französische Straße" priority="10" type="highway.tertiary" shape="213.92,286.34 216.97,286.56 236.45,287.95 251.90,288.92 316.78,294.21 321.42,294.59 333.32,295.56">