<?xml version="1.0" encoding="UTF-8"?>

<!-- generated on 2022-03-22 22:06:32 by Eclipse SUMO netconvert Version 1.12.0
<configuration xmlns:xsi="http://www.w3.org/2001/XMLSchema-instance" xsi:noNamespaceSchemaLocation="http://sumo.dlr.de/xsd/netconvertConfiguration.xsd">

    <input>
        <type-files value="/opt/homebrew/opt/sumo/share/sumo/data/typemap/osmNetconvert.typ.xml"/>
        <osm-files value="osm_bbox.osm.xml"/>
    </input>

    <output>
        <output-file value="osm.net.xml"/>
        <output.street-names value="true"/>
        <output.original-names value="true"/>
    </output>

    <projection>
        <proj.utm value="true"/>
    </projection>

    <processing>
        <geometry.remove value="true"/>
        <roundabouts.guess value="true"/>
    </processing>

    <tls_building>
        <tls.discard-simple value="true"/>
        <tls.join value="true"/>
        <tls.guess-signals value="true"/>
        <tls.default-type value="actuated"/>
    </tls_building>

    <ramp_guessing>
        <ramps.guess value="true"/>
    </ramp_guessing>

    <junctions>
        <junctions.join value="true"/>
        <junctions.corner-detail value="5"/>
    </junctions>

    <report>
        <verbose value="true"/>
        <aggregate-warnings value="5"/>
    </report>

</configuration>
-->

<net version="1.9" junctionCornerDetail="5" limitTurnSpeed="5.50" xmlns:xsi="http://www.w3.org/2001/XMLSchema-instance" xsi:noNamespaceSchemaLocation="http://sumo.dlr.de/xsd/net_file.xsd">

    <location netOffset="-390307.20,-5819584.93" convBoundary="0.00,0.00,862.91,584.20" origBoundary="13.383428,52.515403,13.396025,52.520733" projParameter="+proj=utm +zone=33 +ellps=WGS84 +datum=WGS84 +units=m +no_defs"/>

    <type id="highway.bridleway" priority="1" numLanes="1" speed="2.78" allow="pedestrian" oneway="1" width="2.00"/>
    <type id="highway.bus_guideway" priority="1" numLanes="1" speed="27.78" allow="bus" oneway="1"/>
    <type id="highway.cycleway" priority="1" numLanes="1" speed="8.33" allow="bicycle" oneway="0" width="1.00"/>
    <type id="highway.footway" priority="1" numLanes="1" speed="2.78" allow="pedestrian" oneway="1" width="2.00"/>
    <type id="highway.ford" priority="1" numLanes="1" speed="2.78" allow="army" oneway="0"/>
    <type id="highway.living_street" priority="2" numLanes="1" speed="2.78" disallow="tram rail_urban rail rail_electric rail_fast ship" oneway="0"/>
    <type id="highway.motorway" priority="14" numLanes="2" speed="39.44" allow="private emergency authority army vip passenger hov taxi bus coach delivery truck trailer motorcycle evehicle custom1 custom2" oneway="1"/>
    <type id="highway.motorway_link" priority="9" numLanes="1" speed="22.22" allow="private emergency authority army vip passenger hov taxi bus coach delivery truck trailer motorcycle evehicle custom1 custom2" oneway="1"/>
    <type id="highway.path" priority="1" numLanes="1" speed="2.78" allow="pedestrian bicycle" oneway="0" width="2.00"/>
    <type id="highway.pedestrian" priority="1" numLanes="1" speed="2.78" allow="pedestrian" oneway="1" width="2.00"/>
    <type id="highway.primary" priority="12" numLanes="2" speed="27.78" disallow="tram rail_urban rail rail_electric rail_fast ship" oneway="0"/>
    <type id="highway.primary_link" priority="7" numLanes="1" speed="22.22" disallow="tram rail_urban rail rail_electric rail_fast ship" oneway="0"/>
    <type id="highway.raceway" priority="15" numLanes="2" speed="83.33" allow="vip" oneway="0"/>
    <type id="highway.residential" priority="3" numLanes="1" speed="13.89" disallow="tram rail_urban rail rail_electric rail_fast ship" oneway="0"/>
    <type id="highway.secondary" priority="11" numLanes="1" speed="27.78" disallow="tram rail_urban rail rail_electric rail_fast ship" oneway="0"/>
    <type id="highway.secondary_link" priority="6" numLanes="1" speed="22.22" disallow="tram rail_urban rail rail_electric rail_fast ship" oneway="0"/>
    <type id="highway.service" priority="1" numLanes="1" speed="5.56" allow="pedestrian delivery bicycle" oneway="0"/>
    <type id="highway.stairs" priority="1" numLanes="1" speed="1.39" allow="pedestrian" oneway="1" width="2.00"/>
    <type id="highway.step" priority="1" numLanes="1" speed="1.39" allow="pedestrian" oneway="1" width="2.00"/>
    <type id="highway.steps" priority="1" numLanes="1" speed="1.39" allow="pedestrian" oneway="1" width="2.00"/>
    <type id="highway.tertiary" priority="10" numLanes="1" speed="22.22" disallow="tram rail_urban rail rail_electric rail_fast ship" oneway="0"/>
    <type id="highway.tertiary_link" priority="5" numLanes="1" speed="22.22" disallow="tram rail_urban rail rail_electric rail_fast ship" oneway="0"/>
    <type id="highway.track" priority="1" numLanes="1" speed="5.56" allow="pedestrian motorcycle moped bicycle" oneway="0"/>
    <type id="highway.trunk" priority="13" numLanes="2" speed="27.78" disallow="pedestrian bicycle tram rail_urban rail rail_electric rail_fast ship" oneway="0"/>
    <type id="highway.trunk_link" priority="8" numLanes="1" speed="22.22" disallow="pedestrian bicycle tram rail_urban rail rail_electric rail_fast ship" oneway="0"/>
    <type id="highway.unclassified" priority="4" numLanes="1" speed="13.89" disallow="tram rail_urban rail rail_electric rail_fast ship" oneway="0"/>
    <type id="highway.unsurfaced" priority="1" numLanes="1" speed="8.33" disallow="tram rail_urban rail rail_electric rail_fast ship" oneway="0"/>
    <type id="railway.highspeed" priority="21" numLanes="1" speed="69.44" allow="rail_fast" oneway="1"/>
    <type id="railway.light_rail" priority="19" numLanes="1" speed="27.78" allow="rail_urban" oneway="1"/>
    <type id="railway.preserved" priority="16" numLanes="1" speed="27.78" allow="rail" oneway="1"/>
    <type id="railway.rail" priority="20" numLanes="1" speed="44.44" allow="rail" oneway="1"/>
    <type id="railway.subway" priority="18" numLanes="1" speed="27.78" allow="rail_urban" oneway="1"/>
    <type id="railway.tram" priority="17" numLanes="1" speed="13.89" allow="tram" oneway="1"/>

    <edge id=":1673527063_0" function="internal">
        <lane id=":1673527063_0_0" index="0" allow="tram" speed="13.89" length="5.10" shape="494.40,394.76 495.72,395.49 496.68,395.87 497.66,396.21 499.04,396.83"/>
    </edge>
    <edge id=":1702616130_0" function="internal">
        <lane id=":1702616130_0_0" index="0" disallow="tram rail_urban rail rail_electric rail_fast ship" speed="3.65" length="4.67" shape="27.58,268.27 26.45,267.38 26.12,266.55 26.58,265.78 27.84,265.09"/>
    </edge>
    <edge id=":1864428519_0" function="internal">
        <lane id=":1864428519_0_0" index="0" disallow="pedestrian tram rail_urban rail rail_electric rail_fast ship" speed="13.89" length="5.08" shape="339.77,410.19 340.13,405.12"/>
    </edge>
    <edge id=":1864428522_0" function="internal">
        <lane id=":1864428522_0_0" index="0" disallow="pedestrian tram rail_urban rail rail_electric rail_fast ship" speed="13.89" length="12.64" shape="356.79,405.85 355.69,418.44"/>
    </edge>
    <edge id=":21487242_0" function="internal">
        <lane id=":21487242_0_0" index="0" disallow="tram rail_urban rail rail_electric rail_fast ship" speed="3.65" length="4.67" shape="362.86,195.07 363.74,193.94 364.57,193.59 365.34,194.05 366.05,195.31"/>
    </edge>
    <edge id=":25662562_0" function="internal">
        <lane id=":25662562_0_0" index="0" disallow="tram rail_urban rail rail_electric rail_fast ship" speed="3.65" length="4.67" shape="157.42,178.24 158.34,177.13 159.18,176.83 159.93,177.31 160.60,178.59"/>
    </edge>
    <edge id=":25664649_0" function="internal">
        <lane id=":25664649_0_0" index="0" disallow="tram rail_urban rail rail_electric rail_fast ship" speed="6.46" length="9.03" shape="364.52,294.69 362.04,294.83 360.22,295.74 359.05,297.40 358.54,299.83"/>
    </edge>
    <edge id=":25664649_1" function="internal">
        <lane id=":25664649_1_0" index="0" disallow="tram rail_urban rail rail_electric rail_fast ship" speed="8.33" length="14.46" shape="364.52,294.69 350.11,293.53"/>
    </edge>
    <edge id=":25664649_2" function="internal">
        <lane id=":25664649_2_0" index="0" disallow="tram rail_urban rail rail_electric rail_fast ship" speed="8.06" length="14.27" shape="364.52,294.69 360.70,293.81 358.07,291.94 356.61,289.06 356.34,285.17"/>
    </edge>
    <edge id=":25664649_3" function="internal">
        <lane id=":25664649_3_0" index="0" disallow="tram rail_urban rail rail_electric rail_fast ship" speed="3.65" length="4.67" shape="364.52,294.69 363.39,293.79 363.06,292.96 363.53,292.20 364.79,291.50"/>
    </edge>
    <edge id=":25664649_4" function="internal">
        <lane id=":25664649_4_0" index="0" disallow="tram rail_urban rail rail_electric rail_fast ship" speed="6.58" length="9.16" shape="359.53,285.40 359.71,287.89 360.64,289.74 362.34,290.94 364.79,291.50"/>
    </edge>
    <edge id=":25664649_5" function="internal">
        <lane id=":25664649_5_0" index="0" disallow="tram rail_urban rail rail_electric rail_fast ship" speed="8.33" length="14.46" shape="359.53,285.40 358.54,299.83"/>
    </edge>
    <edge id=":25664649_6" function="internal">
        <lane id=":25664649_6_0" index="0" disallow="tram rail_urban rail rail_electric rail_fast ship" speed="8.00" length="4.04" shape="359.53,285.40 358.71,289.21 358.62,289.33"/>
    </edge>
    <edge id=":25664649_7" function="internal">
        <lane id=":25664649_7_0" index="0" disallow="tram rail_urban rail rail_electric rail_fast ship" speed="3.65" length="1.44" shape="359.53,285.40 358.65,286.54"/>
    </edge>
    <edge id=":25664649_16" function="internal">
        <lane id=":25664649_16_0" index="0" disallow="tram rail_urban rail rail_electric rail_fast ship" speed="8.00" length="10.16" shape="358.62,289.33 356.86,291.83 353.99,293.27 350.11,293.53"/>
    </edge>
    <edge id=":25664649_17" function="internal">
        <lane id=":25664649_17_0" index="0" disallow="tram rail_urban rail rail_electric rail_fast ship" speed="3.65" length="3.23" shape="358.65,286.54 357.82,286.88 357.05,286.43 356.34,285.17"/>
    </edge>
    <edge id=":25664649_8" function="internal">
        <lane id=":25664649_8_0" index="0" disallow="tram rail_urban rail rail_electric rail_fast ship" speed="6.50" length="9.03" shape="350.35,290.34 352.82,290.18 354.64,289.26 355.82,287.59 356.34,285.17"/>
    </edge>
    <edge id=":25664649_9" function="internal">
        <lane id=":25664649_9_0" index="0" disallow="tram rail_urban rail rail_electric rail_fast ship" speed="8.33" length="14.49" shape="350.35,290.34 364.79,291.50"/>
    </edge>
    <edge id=":25664649_10" function="internal">
        <lane id=":25664649_10_0" index="0" disallow="tram rail_urban rail rail_electric rail_fast ship" speed="8.05" length="14.27" shape="350.35,290.34 354.15,291.18 356.78,293.05 358.25,295.93 358.54,299.83"/>
    </edge>
    <edge id=":25664649_11" function="internal">
        <lane id=":25664649_11_0" index="0" disallow="tram rail_urban rail rail_electric rail_fast ship" speed="3.65" length="4.67" shape="350.35,290.34 351.48,291.23 351.82,292.06 351.36,292.82 350.11,293.53"/>
    </edge>
    <edge id=":25664649_12" function="internal">
        <lane id=":25664649_12_0" index="0" disallow="tram rail_urban rail rail_electric rail_fast ship" speed="6.57" length="9.14" shape="355.35,299.62 355.16,297.12 354.22,295.27 352.54,294.07 350.11,293.53"/>
    </edge>
    <edge id=":25664649_13" function="internal">
        <lane id=":25664649_13_0" index="0" disallow="tram rail_urban rail rail_electric rail_fast ship" speed="8.33" length="14.49" shape="355.35,299.62 356.34,285.17"/>
    </edge>
    <edge id=":25664649_14" function="internal">
        <lane id=":25664649_14_0" index="0" disallow="tram rail_urban rail rail_electric rail_fast ship" speed="7.97" length="4.11" shape="355.35,299.62 356.16,295.79 356.26,295.64"/>
    </edge>
    <edge id=":25664649_15" function="internal">
        <lane id=":25664649_15_0" index="0" disallow="tram rail_urban rail rail_electric rail_fast ship" speed="3.65" length="1.44" shape="355.35,299.62 356.22,298.48"/>
    </edge>
    <edge id=":25664649_18" function="internal">
        <lane id=":25664649_18_0" index="0" disallow="tram rail_urban rail rail_electric rail_fast ship" speed="7.97" length="10.16" shape="356.26,295.64 358.00,293.16 360.88,291.73 364.79,291.50"/>
    </edge>
    <edge id=":25664649_19" function="internal">
        <lane id=":25664649_19_0" index="0" disallow="tram rail_urban rail rail_electric rail_fast ship" speed="3.65" length="3.23" shape="356.22,298.48 357.05,298.13 357.82,298.58 358.54,299.83"/>
    </edge>
    <edge id=":25664657_0" function="internal">
        <lane id=":25664657_0_0" index="0" disallow="tram rail_urban rail rail_electric rail_fast ship" speed="6.50" length="9.03" shape="479.69,301.27 482.16,301.13 483.99,300.23 485.18,298.58 485.74,296.16"/>
    </edge>
    <edge id=":25664657_1" function="internal">
        <lane id=":25664657_1_0" index="0" disallow="tram rail_urban rail rail_electric rail_fast ship" speed="3.65" length="4.67" shape="479.69,301.27 480.82,302.17 481.15,303.00 480.68,303.76 479.42,304.46"/>
    </edge>
    <edge id=":25664657_2" function="internal">
        <lane id=":25664657_2_0" index="0" disallow="tram rail_urban rail rail_electric rail_fast ship" speed="6.58" length="9.09" shape="484.69,310.49 484.49,308.03 483.55,306.21 481.85,305.02 479.42,304.46"/>
    </edge>
    <edge id=":25664657_3" function="internal">
        <lane id=":25664657_3_0" index="0" disallow="tram rail_urban rail rail_electric rail_fast ship" speed="13.89" length="14.37" shape="484.69,310.49 485.74,296.16"/>
    </edge>
    <edge id=":25664699_0" function="internal">
        <lane id=":25664699_0_0" index="0" disallow="tram rail_urban rail rail_electric rail_fast ship" speed="3.65" length="4.67" shape="20.55,344.01 19.43,343.11 19.10,342.28 19.57,341.52 20.83,340.82"/>
    </edge>
    <edge id=":26701256_0" function="internal">
        <lane id=":26701256_0_0" index="0" disallow="tram rail_urban rail rail_electric rail_fast ship" speed="4.13" length="6.64" shape="473.24,508.21 471.21,508.42 470.04,507.90 469.76,506.66 470.35,504.70"/>
    </edge>
    <edge id=":26934085_0" function="internal">
        <lane id=":26934085_0_0" index="0" disallow="tram rail_urban rail rail_electric rail_fast ship" speed="3.65" length="4.67" shape="130.03,528.34 129.10,529.44 128.26,529.75 127.51,529.27 126.85,527.99"/>
    </edge>
    <edge id=":2694740946_0" function="internal">
        <lane id=":2694740946_0_0" index="0" disallow="tram rail_urban rail rail_electric rail_fast ship" speed="8.33" length="5.01" shape="309.80,290.48 304.81,290.10"/>
    </edge>
    <edge id=":2694740946_1" function="internal">
        <lane id=":2694740946_1_0" index="0" disallow="tram rail_urban rail rail_electric rail_fast ship" speed="8.33" length="5.00" shape="305.06,286.91 310.04,287.29"/>
    </edge>
    <edge id=":2792266053_0" function="internal">
        <lane id=":2792266053_0_0" index="0" allow="rail_urban" speed="27.78" length="0.30" shape="353.95,360.80 353.93,361.10"/>
    </edge>
    <edge id=":2959830775_0" function="internal">
        <lane id=":2959830775_0_0" index="0" disallow="tram rail_urban rail rail_electric rail_fast ship" speed="8.33" length="14.92" shape="152.65,269.08 152.66,272.82 152.58,276.54 152.40,280.26 152.11,283.98"/>
    </edge>
    <edge id=":2959830775_1" function="internal">
        <lane id=":2959830775_1_0" index="0" disallow="tram rail_urban rail rail_electric rail_fast ship" speed="7.86" length="14.52" shape="152.65,269.08 152.14,273.08 150.47,275.85 147.62,277.38 143.60,277.69"/>
    </edge>
    <edge id=":2959830775_2" function="internal">
        <lane id=":2959830775_2_0" index="0" disallow="tram rail_urban rail rail_electric rail_fast ship" speed="3.65" length="4.67" shape="152.65,269.08 151.87,270.30 151.07,270.71 150.27,270.33 149.45,269.14"/>
    </edge>
    <edge id=":2959830775_3" function="internal">
        <lane id=":2959830775_3_0" index="0" disallow="tram rail_urban rail rail_electric rail_fast ship" speed="6.33" length="9.04" shape="143.82,274.50 146.32,274.30 148.09,273.35 149.13,271.63 149.45,269.14"/>
    </edge>
    <edge id=":2959830775_4" function="internal">
        <lane id=":2959830775_4_0" index="0" disallow="tram rail_urban rail rail_electric rail_fast ship" speed="8.00" length="14.45" shape="143.82,274.50 147.75,275.32 150.44,277.17 151.90,280.06 152.11,283.98"/>
    </edge>
    <edge id=":2959830775_5" function="internal">
        <lane id=":2959830775_5_0" index="0" disallow="tram rail_urban rail rail_electric rail_fast ship" speed="3.65" length="4.67" shape="143.82,274.50 144.96,275.37 145.31,276.20 144.85,276.97 143.60,277.69"/>
    </edge>
    <edge id=":2959830775_6" function="internal">
        <lane id=":2959830775_6_0" index="0" disallow="tram rail_urban rail rail_electric rail_fast ship" speed="6.51" length="9.20" shape="148.92,283.69 148.78,281.21 147.85,279.38 146.12,278.21 143.60,277.69"/>
    </edge>
    <edge id=":2959830775_7" function="internal">
        <lane id=":2959830775_7_0" index="0" disallow="tram rail_urban rail rail_electric rail_fast ship" speed="8.33" length="14.57" shape="148.92,283.69 149.21,280.02 149.39,276.42 149.46,272.82 149.45,269.14"/>
    </edge>
    <edge id=":2959830775_8" function="internal">
        <lane id=":2959830775_8_0" index="0" disallow="tram rail_urban rail rail_electric rail_fast ship" speed="3.65" length="4.67" shape="148.92,283.69 149.83,282.57 150.66,282.25 151.42,282.72 152.11,283.98"/>
    </edge>
    <edge id=":3343070503_0" function="internal">
        <lane id=":3343070503_0_0" index="0" disallow="tram rail_urban rail rail_electric rail_fast ship" speed="8.33" length="4.98" shape="136.63,277.22 131.67,276.85"/>
    </edge>
    <edge id=":3343070503_1" function="internal">
        <lane id=":3343070503_1_0" index="0" disallow="tram rail_urban rail rail_electric rail_fast ship" speed="8.33" length="4.93" shape="131.93,273.66 136.84,274.03"/>
    </edge>
    <edge id=":3343070508_0" function="internal">
        <lane id=":3343070508_0_0" index="0" disallow="tram rail_urban rail rail_electric rail_fast ship" speed="8.33" length="5.09" shape="149.92,308.17 149.46,313.23"/>
    </edge>
    <edge id=":3343070508_1" function="internal">
        <lane id=":3343070508_1_0" index="0" disallow="tram rail_urban rail rail_electric rail_fast ship" speed="8.33" length="5.09" shape="146.27,312.94 146.73,307.88"/>
    </edge>
    <edge id=":3343070515_0" function="internal">
        <lane id=":3343070515_0_0" index="0" disallow="tram rail_urban rail rail_electric rail_fast ship" speed="8.33" length="5.00" shape="147.44,335.45 146.99,340.43"/>
    </edge>
    <edge id=":3343070515_1" function="internal">
        <lane id=":3343070515_1_0" index="0" disallow="tram rail_urban rail rail_electric rail_fast ship" speed="8.33" length="5.00" shape="143.80,340.14 144.25,335.16"/>
    </edge>
    <edge id=":4526642686_0" function="internal">
        <lane id=":4526642686_0_0" index="0" disallow="tram rail_urban rail rail_electric rail_fast ship" speed="8.33" length="5.00" shape="151.68,288.77 151.23,293.75"/>
    </edge>
    <edge id=":4526642686_1" function="internal">
        <lane id=":4526642686_1_0" index="0" disallow="tram rail_urban rail rail_electric rail_fast ship" speed="8.33" length="5.00" shape="148.04,293.46 148.49,288.48"/>
    </edge>
    <edge id=":4590472030_0" function="internal">
        <lane id=":4590472030_0_0" index="0" disallow="tram rail_urban rail rail_electric rail_fast ship" speed="8.33" length="0.12" shape="493.02,398.42 493.11,398.34"/>
    </edge>
    <edge id=":4590472040_0" function="internal">
        <lane id=":4590472040_0_0" index="0" disallow="tram rail_urban rail rail_electric rail_fast ship" speed="8.33" length="2.97" shape="462.27,376.70 465.06,377.72"/>
    </edge>
    <edge id=":4590472040_1" function="internal">
        <lane id=":4590472040_1_0" index="0" allow="tram" speed="13.89" length="2.94" shape="462.23,376.91 463.09,377.06 463.68,377.18 464.26,377.33 465.10,377.56"/>
    </edge>
    <edge id=":5116771751_0" function="internal">
        <lane id=":5116771751_0_0" index="0" allow="rail_urban" speed="27.78" length="2.96" shape="361.64,234.47 361.78,237.43"/>
    </edge>
    <edge id=":5116771751_1" function="internal">
        <lane id=":5116771751_1_0" index="0" allow="rail_urban" speed="27.78" length="3.04" shape="361.43,237.44 362.03,234.46"/>
    </edge>
    <edge id=":5116771752_0" function="internal">
        <lane id=":5116771752_0_0" index="0" allow="rail_urban" speed="27.78" length="3.00" shape="364.67,220.62 364.45,223.61"/>
    </edge>
    <edge id=":5116771753_0" function="internal">
        <lane id=":5116771753_0_0" index="0" allow="rail_urban" speed="27.78" length="2.98" shape="358.48,253.04 358.71,250.07"/>
    </edge>
    <edge id=":5116771753_1" function="internal">
        <lane id=":5116771753_1_0" index="0" allow="rail_urban" speed="27.78" length="2.99" shape="358.48,253.04 358.55,252.16 358.63,251.55 358.73,250.96 358.91,250.08"/>
    </edge>
    <edge id=":5116771754_0" function="internal">
        <lane id=":5116771754_0_0" index="0" allow="rail_urban" speed="27.78" length="2.81" shape="360.85,223.47 361.07,220.68"/>
    </edge>
    <edge id=":5116771755_0" function="internal">
        <lane id=":5116771755_0_0" index="0" allow="rail_urban" speed="27.78" length="2.81" shape="362.47,250.78 362.26,253.58"/>
    </edge>
    <edge id=":5116771755_1" function="internal">
        <lane id=":5116771755_1_0" index="0" allow="rail_urban" speed="27.78" length="2.80" shape="362.30,250.78 362.33,251.62 362.34,252.18 362.32,252.75 362.26,253.58"/>
    </edge>
    <edge id=":6476525719_0" function="internal">
        <lane id=":6476525719_0_0" index="0" disallow="tram rail_urban rail rail_electric rail_fast ship" speed="3.65" length="4.67" shape="194.42,281.55 193.28,280.66 192.94,279.83 193.41,279.06 194.66,278.36"/>
    </edge>
    <edge id=":6967775512_0" function="internal">
        <lane id=":6967775512_0_0" index="0" allow="pedestrian delivery bicycle" speed="5.56" length="4.96" shape="262.54,345.93 267.48,346.29"/>
    </edge>
    <edge id=":8302829586_0" function="internal">
        <lane id=":8302829586_0_0" index="0" allow="pedestrian delivery bicycle" speed="3.65" length="4.67" shape="115.35,509.30 114.47,510.45 113.65,510.79 112.88,510.34 112.16,509.09"/>
    </edge>
    <edge id=":8302829587_0" function="internal">
        <lane id=":8302829587_0_0" index="0" allow="pedestrian delivery bicycle" speed="3.65" length="4.67" shape="117.89,417.67 118.76,416.52 119.58,416.17 120.35,416.62 121.08,417.86"/>
    </edge>
    <edge id=":cluster_1206624322_6967775519_0" function="internal">
        <lane id=":cluster_1206624322_6967775519_0_0" index="0" disallow="tram rail_urban rail rail_electric rail_fast ship" speed="8.33" length="7.55" shape="278.94,364.23 271.41,363.62"/>
    </edge>
    <edge id=":cluster_1206624322_6967775519_1" function="internal">
        <lane id=":cluster_1206624322_6967775519_1_0" index="0" allow="pedestrian delivery bicycle" speed="5.02" length="5.00" shape="276.45,357.66 276.50,359.03 276.98,360.05 277.89,360.72 279.24,361.04"/>
    </edge>
    <edge id=":cluster_1206624322_6967775519_2" function="internal">
        <lane id=":cluster_1206624322_6967775519_2_0" index="0" allow="pedestrian delivery bicycle" speed="6.50" length="8.75" shape="276.45,357.66 275.89,360.39 274.86,362.29 273.37,363.37 271.41,363.62"/>
    </edge>
    <edge id=":cluster_1206624322_6967775519_3" function="internal">
        <lane id=":cluster_1206624322_6967775519_3_0" index="0" disallow="tram rail_urban rail rail_electric rail_fast ship" speed="8.33" length="7.62" shape="271.64,360.43 279.24,361.04"/>
    </edge>
    <edge id=":cluster_1206624326_6967775513_0" function="internal">
        <lane id=":cluster_1206624326_6967775513_0_0" index="0" disallow="tram rail_urban rail rail_electric rail_fast ship" speed="8.33" length="11.13" shape="253.49,362.33 242.39,361.54"/>
    </edge>
    <edge id=":cluster_1206624326_6967775513_1" function="internal">
        <lane id=":cluster_1206624326_6967775513_1_0" index="0" allow="pedestrian delivery bicycle" speed="6.95" length="11.60" shape="253.49,362.33 249.98,361.69 247.55,360.33 246.20,358.27 245.94,355.50"/>
    </edge>
    <edge id=":cluster_1206624326_6967775513_2" function="internal">
        <lane id=":cluster_1206624326_6967775513_2_0" index="0" allow="pedestrian delivery bicycle" speed="5.06" length="4.98" shape="242.61,358.35 243.96,358.25 244.97,357.74 245.63,356.83 245.94,355.50"/>
    </edge>
    <edge id=":cluster_1206624326_6967775513_3" function="internal">
        <lane id=":cluster_1206624326_6967775513_3_0" index="0" disallow="tram rail_urban rail rail_electric rail_fast ship" speed="8.33" length="11.14" shape="242.61,358.35 253.72,359.14"/>
    </edge>
    <edge id=":cluster_1673527106_1673527109_0" function="internal">
        <lane id=":cluster_1673527106_1673527109_0_0" index="0" allow="tram" speed="13.89" length="5.07" shape="346.29,405.39 346.00,410.45"/>
    </edge>
    <edge id=":cluster_1673527106_1673527109_1" function="internal">
        <lane id=":cluster_1673527106_1673527109_1_0" index="0" allow="tram" speed="13.89" length="5.08" shape="348.96,410.63 349.25,405.56"/>
    </edge>
    <edge id=":cluster_25664673_4590472038_4590472039_0" function="internal">
        <lane id=":cluster_25664673_4590472038_4590472039_0_0" index="0" allow="tram" speed="13.89" length="16.42" shape="477.00,499.17 474.85,495.89 473.33,491.95 472.40,487.78 471.98,483.80"/>
    </edge>
    <edge id=":cluster_25664673_4590472038_4590472039_1" function="internal">
        <lane id=":cluster_25664673_4590472038_4590472039_1_0" index="0" disallow="tram rail_urban rail rail_electric rail_fast ship" speed="5.67" length="9.19" shape="474.36,383.09 476.84,384.25 478.68,384.12 479.86,382.69 480.39,379.98"/>
    </edge>
    <edge id=":cluster_25664673_4590472038_4590472039_2" function="internal">
        <lane id=":cluster_25664673_4590472038_4590472039_2_0" index="0" disallow="tram rail_urban rail rail_electric rail_fast ship" speed="8.33" length="23.96" shape="474.36,383.09 478.48,386.16 483.74,390.52 488.93,394.97 492.87,398.29"/>
    </edge>
    <edge id=":cluster_25664673_4590472038_4590472039_3" function="internal">
        <lane id=":cluster_25664673_4590472038_4590472039_3_0" index="0" disallow="tram rail_urban rail rail_electric rail_fast ship" speed="11.11" length="124.92" shape="474.36,383.09 473.26,508.01"/>
    </edge>
    <edge id=":cluster_25664673_4590472038_4590472039_4" function="internal">
        <lane id=":cluster_25664673_4590472038_4590472039_4_0" index="0" allow="tram" speed="13.89" length="23.01" shape="474.97,382.06 494.23,394.65"/>
    </edge>
    <edge id=":cluster_25664673_4590472038_4590472039_5" function="internal">
        <lane id=":cluster_25664673_4590472038_4590472039_5_0" index="0" disallow="tram rail_urban rail rail_electric rail_fast ship" speed="13.89" length="121.46" shape="470.69,501.06 480.39,379.98"/>
    </edge>
    <edge id=":cluster_25664673_4590472038_4590472039_6" function="internal">
        <lane id=":cluster_25664673_4590472038_4590472039_6_0" index="0" disallow="tram rail_urban rail rail_electric rail_fast ship" speed="11.11" length="105.13" shape="470.69,501.06 492.87,398.29"/>
    </edge>
    <edge id=":cluster_25664673_4590472038_4590472039_7" function="internal">
        <lane id=":cluster_25664673_4590472038_4590472039_7_0" index="0" disallow="tram rail_urban rail rail_electric rail_fast ship" speed="5.01" length="5.41" shape="470.69,501.06 473.94,501.83 475.45,503.24"/>
    </edge>
    <edge id=":cluster_25664673_4590472038_4590472039_8" function="internal">
        <lane id=":cluster_25664673_4590472038_4590472039_8_0" index="0" disallow="tram rail_urban rail rail_electric rail_fast ship" speed="5.01" length="5.41" shape="475.45,503.24 475.23,505.30 473.26,508.01"/>
    </edge>
    <edge id=":cluster_25664680_4603453154_577258918_0" function="internal">
        <lane id=":cluster_25664680_4603453154_577258918_0_0" index="0" allow="tram" speed="13.89" length="11.19" shape="357.75,376.37 355.24,378.24 353.59,380.01 352.23,382.06 350.60,384.79"/>
    </edge>
    <edge id=":cluster_25664680_4603453154_577258918_1" function="internal">
        <lane id=":cluster_25664680_4603453154_577258918_1_0" index="0" disallow="tram rail_urban rail rail_electric rail_fast ship" speed="8.33" length="17.53" shape="354.47,362.10 355.19,365.15 357.80,367.23 362.31,368.33 368.72,368.47"/>
    </edge>
    <edge id=":cluster_25664680_4603453154_577258918_2" function="internal">
        <lane id=":cluster_25664680_4603453154_577258918_2_0" index="0" disallow="tram rail_urban rail rail_electric rail_fast ship" speed="11.11" length="26.55" shape="354.47,362.10 354.99,367.60 356.41,375.23 357.81,382.84 358.27,388.35"/>
    </edge>
    <edge id=":cluster_25664680_4603453154_577258918_3" function="internal">
        <lane id=":cluster_25664680_4603453154_577258918_3_0" index="0" disallow="tram rail_urban rail rail_electric rail_fast ship" speed="8.18" length="15.14" shape="354.47,362.10 353.59,365.93 351.55,368.55 348.33,369.94 343.95,370.12"/>
    </edge>
    <edge id=":cluster_25664680_4603453154_577258918_4" function="internal">
        <lane id=":cluster_25664680_4603453154_577258918_4_0" index="0" disallow="tram rail_urban rail rail_electric rail_fast ship" speed="3.65" length="4.67" shape="354.47,362.10 353.59,363.25 352.77,363.59 352.00,363.14 351.28,361.89"/>
    </edge>
    <edge id=":cluster_25664680_4603453154_577258918_5" function="internal">