<?xml version="1.0" encoding="UTF-8"?>

<!-- generated on 2022-03-22 22:06:33 by Eclipse SUMO polyconvert Version 1.12.0
<configuration xmlns:xsi="http://www.w3.org/2001/XMLSchema-instance" xsi:noNamespaceSchemaLocation="http://sumo.dlr.de/xsd/polyconvertConfiguration.xsd">

    <input>
        <net-file value="osm.net.xml"/>
        <osm-files value="osm_bbox.osm.xml"/>
        <osm.keep-full-type value="true"/>
        <type-file value="/opt/homebrew/opt/sumo/share/sumo/data/typemap/osmPolyconvert.typ.xml"/>
    </input>

    <output>
        <output-file value="osm.poly.xml"/>
    </output>

    <processing>
        <poi-layer-offset value="5"/>
    </processing>

    <report>
        <verbose value="true"/>
    </report>

</configuration>
-->

<additional xmlns:xsi="http://www.w3.org/2001/XMLSchema-instance" xsi:noNamespaceSchemaLocation="http://sumo.dlr.de/xsd/additional_file.xsd">
    <location netOffset="-390307.20,-5819584.93" convBoundary="-1319.03,-4204.07,862.91,3674.26" origBoundary="13.365446,52.477280,13.396025,52.548335" projParameter="+proj=utm +zone=33 +ellps=WGS84 +datum=WGS84 +units=m +no_defs"/>

    <poly id="105187864" type="building.yes" color="255,230,230" fill="1" layer="-1.00" shape="210.537860,433.690566 204.996193,433.269192 199.610074,432.822091 197.624234,432.655062 195.815291,432.506333 193.156279,432.287590 193.835161,424.093562 194.757902,412.233074 184.860091,411.285965 183.804168,423.260710 183.226357,430.206179 182.698171,436.638665 182.270294,441.789223 182.146826,443.249711 181.878472,446.427103 181.718454,448.378026 181.552398,450.362467 181.068189,455.725712 191.569245,456.637068 191.998194,451.230550 192.148127,449.435640 192.340402,447.105654 192.586349,444.140191 192.753653,442.211360 194.399264,442.341484 196.487119,442.517359 198.608897,442.692476 204.171654,443.146754 209.730680,443.434207 210.537860,433.690566"/>
    <poly id="105187864#1" type="landuse.commercial" color="209,209,204" fill="1" layer="-3.00" shape="210.537860,433.690566 204.996193,433.269192 199.610074,432.822091 197.624234,432.655062 195.815291,432.506333 193.156279,432.287590 193.835161,424.093562 194.757902,412.233074 184.860091,411.285965 183.804168,423.260710 183.226357,430.206179 182.698171,436.638665 182.270294,441.789223 182.146826,443.249711 181.878472,446.427103 181.718454,448.378026 181.552398,450.362467 181.068189,455.725712 191.569245,456.637068 191.998194,451.230550 192.148127,449.435640 192.340402,447.105654 192.586349,444.140191 192.753653,442.211360 194.399264,442.341484 196.487119,442.517359 198.608897,442.692476 204.171654,443.146754 209.730680,443.434207 210.537860,433.690566"/>
    <poly id="105187865" type="building.office" color="255,230,230" fill="1" layer="-1.00" shape="240.141677,367.831798 338.560463,375.336692 337.350748,386.825206 331.490158,442.650078 329.526774,464.159207 327.552079,485.768739 189.813420,474.347093 179.666941,473.505708 143.746162,470.525640 150.796095,393.920722 186.162147,396.657327 185.423949,404.930576 160.310159,402.899410 158.214713,428.183872 183.226357,430.206179 182.698171,436.638665 182.270294,441.789223 160.340357,440.065215 158.248986,465.227184 180.133061,467.030098 181.068189,455.725712 191.569245,456.637068 190.609014,467.730586 206.079028,468.953729 207.199784,455.019067 218.305161,455.939225 218.737372,450.677297 240.750884,452.499845 239.948446,462.154352 303.832556,467.425926 308.059168,416.567061 318.933181,417.459234 320.046341,404.081164 270.395089,399.982453 271.315062,388.900986 256.591883,387.694325 254.521653,412.610951 236.547760,411.132032 239.361384,377.263254 240.141677,367.831798"/>
    <poly id="105187865#1" type="landuse.commercial" color="209,209,204" fill="1" layer="-3.00" shape="240.141677,367.831798 338.560463,375.336692 337.350748,386.825206 331.490158,442.650078 329.526774,464.159207 327.552079,485.768739 189.813420,474.347093 179.666941,473.505708 143.746162,470.525640 150.796095,393.920722 186.162147,396.657327 185.423949,404.930576 160.310159,402.899410 158.214713,428.183872 183.226357,430.206179 182.698171,436.638665 182.270294,441.789223 160.340357,440.065215 158.248986,465.227184 180.133061,467.030098 181.068189,455.725712 191.569245,456.637068 190.609014,467.730586 206.079028,468.953729 207.199784,455.019067 218.305161,455.939225 218.737372,450.677297 240.750884,452.499845 239.948446,462.154352 303.832556,467.425926 308.059168,416.567061 318.933181,417.459234 320.046341,404.081164 270.395089,399.982453 271.315062,388.900986 256.591883,387.694325 254.521653,412.610951 236.547760,411.132032 239.361384,377.263254 240.141677,367.831798"/>
    <poly id="105187866" type="building.yes" color="255,230,230" fill="1" layer="-1.00" shape="254.521653,412.610951 252.082724,441.986890 241.698483,441.139560 240.750884,452.499845 218.737372,450.677297 219.278675,444.222268 209.730680,443.434207 210.537860,433.690566 211.291867,424.604648 235.263954,426.583692 236.547760,411.132032 254.521653,412.610951"/>
    <poly id="105187866#1" type="landuse.commercial" color="209,209,204" fill="1" layer="-3.00" shape="254.521653,412.610951 252.082724,441.986890 241.698483,441.139560 240.750884,452.499845 218.737372,450.677297 219.278675,444.222268 209.730680,443.434207 210.537860,433.690566 211.291867,424.604648 235.263954,426.583692 236.547760,411.132032 254.521653,412.610951"/>
    <poly id="107747053" type="amenity.parking" color="184,184,179" fill="1" layer="-1.00" shape="105.277945,505.381357 113.760014,509.197538 121.213690,512.558251 123.513546,477.610351 127.653741,414.779800 111.297723,413.710254 105.277945,505.381357"/>
    <poly id="128441442" type="building.yes" color="255,230,230" fill="1" layer="-1.00" shape="462.467617,340.512912 464.831504,311.973377 447.785613,310.417340 430.256909,309.128068 427.893220,337.667623 462.467617,340.512912"/>
    <poly id="128441444" type="building.yes" color="255,230,230" fill="1" layer="-1.00" shape="476.481160,312.937630 474.677075,334.621162 474.110173,341.466188 462.467617,340.512912 464.831504,311.973377 470.550920,312.446723 476.481160,312.937630"/>
    <poly id="128441446" type="building.yes" color="255,230,230" fill="1" layer="-1.00" shape="474.110173,341.466188 473.136514,353.205329 471.757345,369.894196 437.312321,367.057090 438.788193,349.231031 438.920252,348.760723 452.395833,350.029144 454.630968,351.937760 453.981601,359.040566 460.911873,359.631552 462.467617,340.512912 474.110173,341.466188"/>
    <poly id="128441447" type="building.yes" color="255,230,230" fill="1" layer="-1.00" shape="430.256909,309.128068 424.625934,308.663923 412.799601,307.692607 407.699079,307.272284 405.335271,335.800729 427.893220,337.667623 430.256909,309.128068"/>
    <poly id="128441453" type="building.yes" color="255,230,230" fill="1" layer="-1.00" shape="412.615499,350.248913 420.534046,351.018090 421.478606,341.327074 413.553259,340.558047 412.615499,350.248913"/>
    <poly id="128441454" type="building.yes" color="255,230,230" fill="1" layer="-1.00" shape="437.312321,367.057090 425.533624,366.084685 427.009454,348.258622 438.788193,349.231031 437.312321,367.057090"/>
    <poly id="128441456" type="building.yes" color="255,230,230" fill="1" layer="-1.00" shape="427.893220,337.667623 405.335271,335.800729 402.976052,364.228926 425.533624,366.084685 427.009454,348.258622 427.893220,337.667623"/>
    <poly id="163928093" type="landuse.commercial" color="209,209,204" fill="1" layer="-3.00" shape="-75.752974,425.287749 -73.723880,403.153772 -72.356418,403.290041 -71.453140,392.709603 -72.724622,392.615694 -69.916753,364.944925 -67.968316,343.146594 -48.907041,344.967258 -45.560212,345.281738 -25.836790,346.965250 11.226810,350.307987 29.110392,351.376387 47.571788,353.088450 54.456200,353.446209 101.292324,357.294170 107.366287,357.837053 116.091525,358.554307 127.381577,359.525775 127.409032,359.235841 129.136339,359.375243 129.232091,358.193566 132.414817,358.456200 132.312528,359.649151 132.557277,359.665931 132.530071,359.966987 133.582930,361.211992 133.936483,361.237466 133.495824,366.421700 133.142022,366.385103 131.169532,389.574823 130.691588,395.216126 131.636900,395.295129 131.132497,401.270855 131.234851,407.666987 123.932184,516.347613 119.621124,518.135473 45.553024,480.011657 37.794248,476.368567 -15.622618,451.726320 -38.390886,441.976648 -48.081804,437.842850 -64.625680,430.813650 -75.752974,425.287749"/>
    <poly id="175885749" type="amenity.shelter" color="237,199,199" fill="1" layer="-1.00" shape="340.984829,425.546265 342.208301,425.619098 341.455827,438.432724 340.232358,438.359892 340.984829,425.546265"/>
    <poly id="188036509" type="landuse.commercial" color="209,209,204" fill="1" layer="-3.00" shape="369.132067,285.532684 405.305287,288.519940 423.089083,289.981477 443.757413,291.423246 450.819757,291.844360 468.236733,292.991539 476.899955,293.666310 477.842800,285.110370 481.882141,243.113532 483.944222,217.774383 466.790518,216.877205 457.316935,216.398563 446.461045,215.728217 412.912519,212.960270 375.412708,209.869014 373.674040,230.816708 370.796548,265.521365 369.132067,285.532684"/>
    <poly id="188036513" type="landuse.commercial" color="209,209,204" fill="1" layer="-3.00" shape="358.860903,488.630549 384.319405,490.621637 384.070368,493.453624 399.095264,494.509263 399.219623,491.869230 408.521747,492.596376 461.138238,496.697080 470.004561,389.918568 416.864106,385.506718 384.244646,382.951959 384.197401,382.051672 366.414088,380.901852 365.712412,391.433164 365.201539,401.693154 363.958539,418.991048 363.281687,426.984699 362.030917,442.413319 360.936199,456.925988 359.632312,456.899457 358.983521,464.324972 360.419292,464.482090 358.860903,488.630549"/>
    <poly id="188036514" type="landuse.commercial" color="209,209,204" fill="1" layer="-3.00" shape="358.942101,360.604858 374.359106,361.874235 377.745850,362.154729 398.705310,363.879120 402.976052,364.228926 425.533624,366.084685 437.312321,367.057090 471.757345,369.894196 473.136514,353.205329 474.110173,341.466188 474.677075,334.621162 476.481160,312.937630 470.550920,312.446723 464.831504,311.973377 447.785613,310.417340 430.256909,309.128068 424.625934,308.663923 412.799601,307.692607 407.699079,307.272284 401.387880,306.745450 392.254528,305.992283 376.028223,304.663012 363.664376,303.637045 361.974216,324.016155 360.525333,341.518941 359.380765,355.320549 358.942101,360.604858"/>
    <poly id="188036516" type="landuse.commercial" color="209,209,204" fill="1" layer="-3.00" shape="350.167091,284.375903 354.692729,231.674375 356.635765,208.329661 344.652621,207.339745 335.471577,206.587742 323.202461,205.559752 314.958727,204.831368 311.075077,204.495245 306.810724,204.134243 294.895157,203.131811 288.814993,202.622212 282.945410,202.119044 272.804930,201.266185 266.560507,200.393069 213.908751,196.083700 197.671926,194.911029 184.565950,193.801943 180.663168,193.521988 161.870694,192.206277 158.857019,235.326685 158.286460,243.507166 155.752697,268.623379 185.068251,270.616239 196.349214,271.476798 201.401311,271.853475 207.374905,272.153919 254.048297,275.984746 260.284427,276.490814 266.213422,277.226306 271.688402,277.693756 276.993263,278.142756 282.345616,278.590702 297.002009,279.832326 301.701521,280.228109 306.149497,280.607258 307.979093,280.766695 326.838442,282.359651 328.967812,282.568041 350.167091,284.375903"/>
    <poly id="195071827" type="building.yes" color="255,230,230" fill="1" layer="-1.00" shape="392.318833,262.637454 410.271853,264.072916 412.503603,236.315234 394.550730,234.890885 392.318833,262.637454"/>
    <poly id="196622911" type="amenity.library" color="237,199,199" fill="1" layer="-1.00" shape="525.519028,380.246096 508.691412,379.029948 510.916168,348.501692 527.743888,349.717849 525.519028,380.246096"/>
    <poly id="196622911#1" type="building.yes" color="255,230,230" fill="1" layer="-1.00" shape="525.519028,380.246096 508.691412,379.029948 510.916168,348.501692 527.743888,349.717849 525.519028,380.246096"/>
    <poly id="196622912" type="amenity.library" color="237,199,199" fill="1" layer="-1.00" shape="530.431675,312.547204 514.050883,311.287688 512.344008,333.380757 528.724479,334.629144 530.431675,312.547204"/>
    <poly id="196622912#1" type="building.yes" color="255,230,230" fill="1" layer="-1.00" shape="530.431675,312.547204 514.050883,311.287688 512.344008,333.380757 528.724479,334.629144 530.431675,312.547204"/>
    <poly id="229265272" type="building.yes" color="255,230,230" fill="1" layer="-1.00" shape="129.729599,406.832700 103.586818,404.624545 105.054048,387.377174 111.045561,387.877394 131.169532,389.574823 130.691588,395.216126 131.636900,395.295129 131.132497,401.270855 130.207540,401.191397 129.729599,406.832700"/>
    <poly id="229265273" type="building.yes" color="255,230,230" fill="1" layer="-1.00" shape="116.063186,378.829595 122.640682,379.427996 123.072735,374.466508 121.958862,374.135341 120.941535,373.568333 120.039863,372.709418 119.414623,371.766424 116.780223,371.435893 116.063186,378.829595"/>
    <poly id="24246950" type="building.yes" color="255,230,230" fill="1" layer="-1.00" shape="196.187653,397.545947 194.757902,412.233074 184.860091,411.285965 185.423949,404.930576 186.162147,396.657327 187.111487,385.986905 188.002114,376.029969 189.103888,363.675859 240.141677,367.831798 239.361384,377.263254 229.922069,376.483848 227.927562,400.530837 196.187653,397.545947"/>
    <poly id="24247016" type="building.office" color="255,230,230" fill="1" layer="-1.00" shape="344.673527,359.087335 345.624705,347.571213 348.133932,317.058754 349.362708,302.164752 331.225368,300.677994 328.720284,331.067968 326.536395,357.600597 344.673527,359.087335"/>
    <poly id="24247021" type="building.hotel" color="255,230,230" fill="1" layer="-1.00" shape="235.568206,333.282406 238.885034,293.070737 263.232402,295.108320 280.431249,296.515643 307.341423,298.718748 331.225368,300.677994 328.720284,331.067968 326.536395,357.600597 312.316455,356.438167 280.204089,353.806001 281.581125,337.050340 277.575699,336.728094 265.911977,335.742373 255.616961,334.948650 235.568206,333.282406"/>
    <poly id="24247065" type="building.yes" color="255,230,230" fill="1" layer="-1.00" shape="374.359106,361.874235 375.797189,344.494099 400.143478,346.498992 398.705310,363.879120 377.745850,362.154729 374.359106,361.874235"/>
    <poly id="254307172" type="amenity.shelter" color="237,199,199" fill="1" layer="-1.00" shape="350.028146,450.248094 348.797895,450.175411 348.086696,462.709923 349.316695,462.771484 350.028146,450.248094"/>
    <poly id="25945198" type="building.yes" color="255,230,230" fill="1" layer="-1.00" shape="40.863358,181.694079 34.650798,257.746300 52.692626,259.501172 96.012654,263.016099 139.146677,266.413163 145.721683,190.408662 93.292577,186.051091 40.863358,181.694079"/>
    <poly id="25945199" type="building.yes" color="255,230,230" fill="1" layer="-1.00" shape="54.109364,199.669231 129.372718,206.074914 125.967158,251.084699 50.286622,244.510388 54.109364,199.669231"/>
    <poly id="26367508" type="building.office" color="255,230,230" fill="1" layer="-1.00" shape="103.970313,410.235449 97.252866,409.751483 97.132906,411.367683 50.756534,408.021361 48.079811,444.913965 79.647562,447.189569 94.387744,448.250654 94.279116,449.766451 101.064355,450.248894 103.970313,410.235449"/>
    <poly id="26367510" type="building.yes" color="255,230,230" fill="1" layer="-1.00" shape="100.359836,368.709793 53.667793,364.925385 54.456200,353.446209 101.292324,357.294170 100.359836,368.709793"/>
    <poly id="26443910" type="building.commercial" color="255,230,230" fill="1" layer="-1.00" shape="161.870694,192.206277 158.857019,235.326685 158.286460,243.507166 171.767294,244.385241 177.558727,244.734234 178.262778,236.450623 180.915361,236.680633 181.372715,231.329119 184.565950,193.801943 180.663168,193.521988 161.870694,192.206277"/>
    <poly id="26443911" type="building.yes" color="255,230,230" fill="1" layer="-1.00" shape="213.908751,196.083700 197.671926,194.911029 184.565950,193.801943 181.372715,231.329119 186.541690,231.769935 185.902950,239.028338 187.836331,239.274432 193.351327,239.707518 198.821066,240.241772 205.399479,240.873652 205.969010,234.162057 210.579161,235.416582 211.727160,221.481320 212.483493,213.407973 213.908751,196.083700"/>
    <poly id="26443912" type="building.apartments" color="255,230,230" fill="1" layer="-1.00" shape="238.025634,274.662505 237.948965,275.788114 241.035506,275.997330 241.106385,274.916361 254.048297,275.984746 260.284427,276.490814 262.813369,245.666282 257.767292,245.256024 260.183581,215.769330 265.263862,216.189956 265.338227,215.264697 266.560507,200.393069 213.908751,196.083700 212.483493,213.407973 216.910686,213.765253 216.249585,221.847598 211.727160,221.481320 210.579161,235.416582 214.993013,235.785285 214.512887,241.638050 209.902028,241.262623 207.374905,272.153919 238.025634,274.662505"/>
    <poly id="27200391" type="building.yes" color="255,230,230" fill="1" layer="-1.00" shape="189.103888,363.675859 153.555477,360.687366 152.839353,369.338469 151.298782,387.867144 150.796095,393.920722 186.162147,396.657327 187.111487,385.986905 167.924496,384.602124 168.753525,374.624304 188.002114,376.029969 189.103888,363.675859"/>
    <poly id="27200490" type="building.yes" color="255,230,230" fill="1" layer="-1.00" shape="133.936483,361.237466 133.582930,361.211992 132.530071,359.966987 132.557277,359.665931 132.312528,359.649151 132.414817,358.456200 129.232091,358.193566 129.136339,359.375243 127.409032,359.235841 127.381577,359.525775 107.366287,357.837053 106.382991,369.409598 105.560937,379.086829 111.749714,379.604892 111.045561,387.877394 131.169532,389.574823 133.142022,366.385103 133.495824,366.421700 133.936483,361.237466"/>
    <poly id="273503357" type="building.yes" color="255,230,230" fill="1" layer="-1.00" shape="186.111266,257.150677 185.068251,270.616239 155.752697,268.623379 158.286460,243.507166 171.767294,244.385241 171.141417,255.860751 186.111266,257.150677"/>
    <poly id="283938845" type="landuse.commercial" color="209,209,204" fill="1" layer="-3.00" shape="31.380300,259.933786 38.031276,180.422158 38.648087,177.348234 40.044179,175.425271 42.203242,174.531232 45.240746,174.062636 144.188430,183.165448 148.783224,183.730345 150.059093,184.625408 150.959341,186.330066 151.791532,188.937588 151.172527,197.987112 145.027667,269.553164 143.287028,271.550569 33.718728,262.808015 31.956398,261.712447 31.380300,259.933786"/>
    <poly id="312214132" type="landuse.commercial" color="209,209,204" fill="1" layer="-3.00" shape="140.455842,473.036203 330.831544,488.544193 342.681240,371.706086 150.440314,356.161303 140.455842,473.036203"/>
    <poly id="312214133" type="building.house" color="255,230,230" fill="1" layer="-1.00" shape="181.706947,345.858905 234.191326,350.038082 235.568206,333.282406 238.885034,293.070737 194.490677,289.456174 192.273059,318.092773 188.594523,317.818929 186.145497,345.514855 181.868927,345.209878 181.706947,345.858905"/>
    <poly id="312214135" type="building.office" color="255,230,230" fill="1" layer="-1.00" shape="181.706947,345.858905 155.859172,343.499205 160.593121,286.853557 183.107485,288.575650 180.890182,317.223377 184.079218,317.463649 181.868927,345.209878 181.706947,345.858905"/>
    <poly id="32799077" type="building.hotel" color="255,230,230" fill="1" layer="-1.00" shape="358.860903,488.630549 360.419292,464.482090 358.983521,464.324972 359.632312,456.899457 360.936199,456.925988 362.030917,442.413319 411.228884,446.300502 412.058841,446.382132 410.942794,461.162324 374.867569,458.250777 373.847371,473.974695 409.758411,476.834256 409.039959,486.008360 408.521747,492.596376 399.219623,491.869230 399.095264,494.509263 384.070368,493.453624 384.319405,490.621637 358.860903,488.630549"/>
    <poly id="32799078" type="building.office" color="255,230,230" fill="1" layer="-1.00" shape="363.281687,426.984699 363.958539,418.991048 365.201539,401.693154 365.712412,391.433164 366.414088,380.901852 384.197401,382.051672 384.244646,382.951959 416.864106,385.506718 415.889670,400.550811 414.457846,417.608090 413.481204,430.727148 412.263526,430.609658 363.281687,426.984699"/>
    <poly id="32891040" type="building.yes" color="255,230,230" fill="1" layer="-1.00" shape="489.722285,410.243102 521.972791,413.007077 534.609190,414.094124 533.826453,423.136101 526.304532,422.491437 521.438521,478.872480 521.367676,479.652996 519.891952,479.530104 499.971830,477.815424 484.003203,476.446689 489.722285,410.243102"/>
    <poly id="32898110" type="building.commercial" color="255,230,230" fill="1" layer="-1.00" shape="358.942101,360.604858 374.359106,361.874235 375.797189,344.494099 400.143478,346.498992 398.705310,363.879120 402.976052,364.228926 405.335271,335.800729 407.699079,307.272284 401.387880,306.745450 392.254528,305.992283 376.028223,304.663012 363.664376,303.637045 361.974216,324.016155 360.525333,341.518941 359.380765,355.320549 358.942101,360.604858"/>
    <poly id="32898110#1" type="shop.books" color="237,199,255" fill="1" layer="-1.00" shape="358.942101,360.604858 374.359106,361.874235 375.797189,344.494099 400.143478,346.498992 398.705310,363.879120 402.976052,364.228926 405.335271,335.800729 407.699079,307.272284 401.387880,306.745450 392.254528,305.992283 376.028223,304.663012 363.664376,303.637045 361.974216,324.016155 360.525333,341.518941 359.380765,355.320549 358.942101,360.604858"/>
    <poly id="330840128" type="landuse.commercial" color="209,209,204" fill="1" layer="-3.00" shape="511.241454,500.420395 511.251393,499.952811 512.422139,486.395475 511.606008,486.324647 511.730315,484.897535 507.445624,484.525694 507.327606,485.930411 499.329616,485.240766 499.971830,477.815424 519.891952,479.530104 521.367676,479.652996 521.438521,478.872480 526.304532,422.491437 533.826453,423.136101 534.609190,414.094124 489.722285,410.243102 484.003203,476.446689 483.588600,476.422551 481.718069,497.862761 511.241454,500.420395"/>
    <poly id="373292141" type="leisure.park" color="207,245,201" fill="1" layer="-2.00" shape="82.958443,337.618955 136.610510,341.793216 141.620609,285.363919 87.563147,280.998355 82.958443,337.618955"/>
    <poly id="37408683" type="amenity.library" color="237,199,199" fill="1" layer="-1.00" shape="609.250779,228.802595 607.877005,228.688531 607.923702,228.042088 599.029703,227.372222 598.966864,228.208196 572.747220,226.232906 572.809560,225.374688 559.509252,224.369084 546.018713,223.356627 545.954643,224.136991 519.829935,222.159867 519.924298,220.911466 510.962172,220.232150 510.883455,221.268777 509.394332,221.157312 509.305517,222.349952 508.394353,222.281242 507.685908,231.610883 508.665168,231.689203 507.049470,253.001302 503.431976,252.725860 502.559832,264.151153 504.082867,264.261859 503.055034,277.838261 501.364732,300.064496 499.725870,299.934118 498.986672,309.709555 500.047582,309.797179 498.326771,332.480332 497.252544,332.404133 496.586525,341.198705 497.483850,341.256593 497.384695,342.594123 498.377255,342.661015 496.376480,368.922391 495.626465,378.820476 494.293685,378.716660 493.495510,389.194457 495.106955,389.314316 495.038592,390.206053 504.448946,390.908719 504.506221,390.128506 536.021712,392.497240 535.902351,394.146794 542.912489,394.669348 542.974323,393.788885 546.489693,394.055500 549.814595,394.304107 549.730081,395.385373 556.447977,395.892204 556.553931,394.554524 588.198761,396.942965 588.120528,398.001835 597.429078,398.706946 597.475771,398.060502 598.414039,398.128624 598.471081,397.337290 599.137467,397.389212 599.924773,387.022958 598.632955,386.929328 599.819961,371.346430 601.330272,351.383163 602.846492,351.494051 602.914875,350.602316 603.730779,350.662036 604.460074,341.042629 603.759757,340.991461 604.857715,326.590081 605.466144,318.553493 606.275516,318.624487 606.972290,309.373018 605.741515,309.278026 605.819506,308.208034 605.051088,308.147255 606.656334,286.957838 607.569862,274.941885 607.759621,272.489575 609.459551,272.618630 610.321096,261.316005 606.853378,261.059407 608.485648,239.557817 609.315387,239.628359 610.023527,230.276490 609.139506,230.207157 609.250779,228.802595"/>
    <poly id="37408683#1" type="building.yes" color="255,230,230" fill="1" layer="-1.00" shape="609.250779,228.802595 607.877005,228.688531 607.923702,228.042088 599.029703,227.372222 598.966864,228.208196 572.747220,226.232906 572.809560,225.374688 559.509252,224.369084 546.018713,223.356627 545.954643,224.136991 519.829935,222.159867 519.924298,220.911466 510.962172,220.232150 510.883455,221.268777 509.394332,221.157312 509.305517,222.349952 508.394353,222.281242 507.685908,231.610883 508.665168,231.689203 507.049470,253.001302 503.431976,252.725860 502.559832,264.151153 504.082867,264.261859 503.055034,277.838261 501.364732,300.064496 499.725870,299.934118 498.986672,309.709555 500.047582,309.797179 498.326771,332.480332 497.252544,332.404133 496.586525,341.198705 497.483850,341.256593 497.384695,342.594123 498.377255,342.661015 496.376480,368.922391 495.626465,378.820476 494.293685,378.716660 493.495510,389.194457 495.106955,389.314316 495.038592,390.206053 504.448946,390.908719 504.506221,390.128506 536.021712,392.497240 535.902351,394.146794 542.912489,394.669348 542.974323,393.788885 546.489693,394.055500 549.814595,394.304107 549.730081,395.385373 556.447977,395.892204 556.553931,394.554524 588.198761,396.942965 588.120528,398.001835 597.429078,398.706946 597.475771,398.060502 598.414039,398.128624 598.471081,397.337290 599.137467,397.389212 599.924773,387.022958 598.632955,386.929328 599.819961,371.346430 601.330272,351.383163 602.846492,351.494051 602.914875,350.602316 603.730779,350.662036 604.460074,341.042629 603.759757,340.991461 604.857715,326.590081 605.466144,318.553493 606.275516,318.624487 606.972290,309.373018 605.741515,309.278026 605.819506,308.208034 605.051088,308.147255 606.656334,286.957838 607.569862,274.941885 607.759621,272.489575 609.459551,272.618630 610.321096,261.316005 606.853378,261.059407 608.485648,239.557817 609.315387,239.628359 610.023527,230.276490 609.139506,230.207157 609.250779,228.802595"/>
    <poly id="37415524" type="building.yes" color="255,230,230" fill="1" layer="-1.00" shape="466.790518,216.877205 457.316935,216.398563 446.461045,215.728217 412.912519,212.960270 375.412708,209.869014 373.674040,230.816708 370.796548,265.521365 369.132067,285.532684 405.305287,288.519940 423.089083,289.981477 443.757413,291.423246 447.521031,241.643155 464.931649,242.801598 466.790518,216.877205"/>
    <poly id="37415535" type="building.yes" color="255,230,230" fill="1" layer="-1.00" shape="354.692729,231.674375 350.167091,284.375903 328.967812,282.568041 332.042570,246.679409 343.495904,247.658864 344.438679,236.677060 332.998891,235.697300 333.500011,229.866339 354.692729,231.674375"/>
    <poly id="378150052" type="amenity.toilets" color="237,199,199" fill="1" layer="-1.00" shape="188.440852,436.031772 188.530826,434.894736 188.809522,431.572454 186.116585,431.354473 185.740884,435.802820 188.440852,436.031772"/>
    <poly id="378150064" type="amenity.toilets" color="237,199,199" fill="1" layer="-1.00" shape="192.818117,436.289990 193.081187,433.179484 190.367648,432.950833 190.190505,435.046799 191.169732,435.125054 191.084055,436.150717 192.818117,436.289990"/>
    <poly id="38151408" type="amenity.library" color="237,199,199" fill="1" layer="-1.00" shape="516.396823,279.187740 538.346906,280.879529 537.719960,288.994435 541.827172,289.314625 541.147989,298.131737 515.083991,296.119916 516.396823,279.187740"/>
    <poly id="38151408#1" type="building.yes" color="255,230,230" fill="1" layer="-1.00" shape="516.396823,279.187740 538.346906,280.879529 537.719960,288.994435 541.827172,289.314625 541.147989,298.131737 515.083991,296.119916 516.396823,279.187740"/>
    <poly id="38322797" type="building.yes" color="255,230,230" fill="1" layer="-1.00" shape="335.083861,264.927652 341.667263,265.481708 342.516289,255.470104 335.932625,254.904924 335.083861,264.927652"/>
    <poly id="43011801" type="amenity.university" color="237,199,199" fill="1" layer="-2.00" shape="235.568206,333.282406 238.885034,293.070737 263.232402,295.108320 280.431249,296.515643 307.341423,298.718748 331.225368,300.677994 328.720284,331.067968 326.536395,357.600597 312.316455,356.438167 280.204089,353.806001 276.899246,353.546000 276.205462,353.483606 254.253582,351.704017 246.337486,351.046329 234.191326,350.038082 235.568206,333.282406"/>
    <poly id="43215856" type="building.yes" color="255,230,230" fill="1" layer="-1.00" shape="199.494612,384.541645 218.672495,386.127051 219.528341,375.825942 200.350419,374.240531 199.494612,384.541645"/>
    <poly id="437140525" type="building.yes" color="255,230,230" fill="1" layer="-1.00" shape="301.209982,235.728389 309.247636,236.350073 309.131652,237.843772 308.094908,250.997580 307.826128,254.464289 299.788255,253.831485 300.010622,251.022345 300.803301,240.922968 301.209982,235.728389"/>
    <poly id="478630628" type="landuse.commercial" color="209,209,204" fill="1" layer="-3.00" shape="349.362708,302.164752 344.673527,359.087335 181.706947,345.858905 155.859172,343.499205 160.593121,286.853557 238.885034,293.070737 349.362708,302.164752"/>
    <poly id="48295759" type="building.office" color="255,230,230" fill="1" layer="-1.00" shape="410.942794,461.162324 427.218295,462.590743 431.016459,418.941189 414.457846,417.608090 413.481204,430.727148 412.263526,430.609658 411.228884,446.300502 412.058841,446.382132 410.942794,461.162324"/>
    <poly id="493933237" type="building.yes" color="255,230,230" fill="1" layer="-1.00" shape="185.068251,270.616239 196.349214,271.476798 197.372081,258.323265 191.700805,257.882541 193.351327,239.707518 187.836331,239.274432 186.111266,257.150677 185.068251,270.616239"/>