<?xml version="1.0" encoding="UTF-8"?>

<!-- generated on Sun Feb 20 15:01:27 2022 by Eclipse SUMO duarouter Version 1.8.0
<configuration xmlns:xsi="http://www.w3.org/2001/XMLSchema-instance" xsi:noNamespaceSchemaLocation="http://sumo.dlr.de/xsd/duarouterConfiguration.xsd">

    <input>
        <net-file value="/home/alex/Downloads/2022-02-20-15-01-25/osm.net.xml"/>
        <route-files value="/home/alex/Downloads/2022-02-20-15-01-25/osm.passenger.trips.xml"/>
    </input>

    <output>
        <output-file value="/home/alex/Downloads/2022-02-20-15-01-25/osm.passenger.trips.xml.tmp"/>
        <write-trips value="true"/>
    </output>

    <time>
        <begin value="0"/>
        <end value="3600"/>
    </time>

    <report>
        <no-warnings value="true"/>
        <ignore-errors value="true"/>
        <no-step-log value="true"/>
    </report>

</configuration>
-->

<routes xmlns:xsi="http://www.w3.org/2001/XMLSchema-instance" xsi:noNamespaceSchemaLocation="http://sumo.dlr.de/xsd/routes_file.xsd">
    <vType id="veh_passenger" vClass="passenger"/>
    <trip id="veh0" type="veh_passenger" depart="0.00" departLane="best" departSpeed="max" from="-988121254#3" to="-772025578#1"/>
    <trip id="veh1" type="veh_passenger" depart="2.70" departLane="best" departSpeed="max" from="772025578#0" to="123042405#1"/>
    <trip id="veh2" type="veh_passenger" depart="5.40" departLane="best" departSpeed="max" from="988121254#0" to="-772025578#1"/>
    <trip id="veh3" type="veh_passenger" depart="8.10" departLane="best" departSpeed="max" from="-988121254#3" to="-772025578#1"/>
    <trip id="veh4" type="veh_passenger" depart="10.80" departLane="best" departSpeed="max" from="-123042405#1" to="-772025578#1"/>
    <trip id="veh5" type="veh_passenger" depart="13.50" departLane="best" departSpeed="max" from="772025578#0" to="123042405#1"/>
    <trip id="veh6" type="veh_passenger" depart="16.20" departLane="best" departSpeed="max" from="988121254#0" to="-772025578#1"/>
    <trip id="veh7" type="veh_passenger" depart="18.90" departLane="best" departSpeed="max" from="988121254#0" to="123042405#1"/>
    <trip id="veh8" type="veh_passenger" depart="21.61" departLane="best" departSpeed="max" from="-988121254#3" to="-772025578#1"/>
    <trip id="veh9" type="veh_passenger" depart="24.31" departLane="best" departSpeed="max" from="-123042405#1" to="-772025578#1"/>
    <trip id="veh10" type="veh_passenger" depart="27.01" departLane="best" departSpeed="max" from="988121254#0" to="123042405#1"/>
    <trip id="veh11" type="veh_passenger" depart="29.71" departLane="best" departSpeed="max" from="988121254#0" to="123042405#1"/>
    <trip id="veh12" type="veh_passenger" depart="32.41" departLane="best" departSpeed="max" from="772025578#0" to="988121254#3"/>
    <trip id="veh13" type="veh_passenger" depart="35.11" departLane="best" departSpeed="max" from="-988121254#3" to="123042405#1"/>
    <trip id="veh14" type="veh_passenger" depart="37.81" departLane="best" departSpeed="max" from="988121254#0" to="123042405#1"/>
    <trip id="veh15" type="veh_passenger" depart="40.51" departLane="best" departSpeed="max" from="988121254#0" to="123042405#1"/>
    <trip id="veh16" type="veh_passenger" depart="43.21" departLane="best" departSpeed="max" from="-123042405#1" to="-988121254#0"/>
    <trip id="veh17" type="veh_passenger" depart="45.91" departLane="best" departSpeed="max" from="-123042405#1" to="-772025578#1"/>
    <trip id="veh18" type="veh_passenger" depart="48.61" departLane="best" departSpeed="max" from="-123042405#1" to="-988121254#0"/>
    <trip id="veh19" type="veh_passenger" depart="51.31" departLane="best" departSpeed="max" from="772025578#0" to="-988121254#0"/>
    <trip id="veh20" type="veh_passenger" depart="54.01" departLane="best" departSpeed="max" from="-988121254#3" to="-772025578#1"/>
    <trip id="veh21" type="veh_passenger" depart="56.71" departLane="best" departSpeed="max" from="772025578#0" to="123042405#1"/>
    <trip id="veh22" type="veh_passenger" depart="59.42" departLane="best" departSpeed="max" from="-123042405#1" to="-988121254#0"/>
    <trip id="veh23" type="veh_passenger" depart="62.12" departLane="best" departSpeed="max" from="988121254#0" to="123042405#1"/>
    <trip id="veh24" type="veh_passenger" depart="64.82" departLane="best" departSpeed="max" from="772025578#0" to="123042405#1"/>
    <trip id="veh25" type="veh_passenger" depart="67.52" departLane="best" departSpeed="max" from="988121254#0" to="988121254#3"/>
    <trip id="veh26" type="veh_passenger" depart="70.22" departLane="best" departSpeed="max" from="-123042405#1" to="-772025578#1"/>
    <trip id="veh27" type="veh_passenger" depart="72.92" departLane="best" departSpeed="max" from="-988121254#3" to="-988121254#0"/>
    <trip id="veh28" type="veh_passenger" depart="75.62" departLane="best" departSpeed="max" from="-123042405#1" to="988121254#3"/>
    <trip id="veh29" type="veh_passenger" depart="78.32" departLane="best" departSpeed="max" from="772025578#0" to="-988121254#0"/>
    <trip id="veh30" type="veh_passenger" depart="81.02" departLane="best" departSpeed="max" from="-988121254#3" to="-772025578#1"/>
    <trip id="veh31" type="veh_passenger" depart="83.72" departLane="best" departSpeed="max" from="772025578#0" to="-988121254#0"/>
    <trip id="veh32" type="veh_passenger" depart="86.42" departLane="best" departSpeed="max" from="772025578#0" to="988121254#3"/>
    <trip id="veh33" type="veh_passenger" depart="89.12" departLane="best" departSpeed="max" from="-988121254#3" to="-772025578#1"/>
    <trip id="veh34" type="veh_passenger" depart="91.82" departLane="best" departSpeed="max" from="988121254#0" to="123042405#1"/>
    <trip id="veh35" type="veh_passenger" depart="94.52" departLane="best" departSpeed="max" from="-123042405#1" to="-772025578#1"/>
    <trip id="veh36" type="veh_passenger" depart="97.22" departLane="best" departSpeed="max" from="-123042405#1" to="-988121254#0"/>
    <trip id="veh37" type="veh_passenger" depart="99.93" departLane="best" departSpeed="max" from="988121254#0" to="123042405#1"/>
    <trip id="veh38" type="veh_passenger" depart="102.63" departLane="best" departSpeed="max" from="988121254#0" to="988121254#3"/>
    <trip id="veh39" type="veh_passenger" depart="105.33" departLane="best" departSpeed="max" from="772025578#0" to="123042405#1"/>
    <trip id="veh40" type="veh_passenger" depart="108.03" departLane="best" departSpeed="max" from="-988121254#3" to="123042405#1"/>
    <trip id="veh41" type="veh_passenger" depart="110.73" departLane="best" departSpeed="max" from="-123042405#1" to="-988121254#0"/>
    <trip id="veh42" type="veh_passenger" depart="113.43" departLane="best" departSpeed="max" from="988121254#0" to="988121254#3"/>
    <trip id="veh43" type="veh_passenger" depart="116.13" departLane="best" departSpeed="max" from="-988121254#3" to="123042405#1"/>
    <trip id="veh44" type="veh_passenger" depart="118.83" departLane="best" departSpeed="max" from="988121254#0" to="123042405#1"/>
    <trip id="veh45" type="veh_passenger" depart="121.53" departLane="best" departSpeed="max" from="988121254#0" to="123042405#1"/>
    <trip id="veh46" type="veh_passenger" depart="124.23" departLane="best" departSpeed="max" from="-123042405#1" to="-988121254#0"/>
    <trip id="veh47" type="veh_passenger" depart="126.93" departLane="best" departSpeed="max" from="-123042405#1" to="988121254#3"/>
    <trip id="veh48" type="veh_passenger" depart="129.63" departLane="best" departSpeed="max" from="988121254#0" to="988121254#3"/>
    <trip id="veh49" type="veh_passenger" depart="132.33" departLane="best" departSpeed="max" from="-988121254#3" to="-772025578#1"/>
    <trip id="veh50" type="veh_passenger" depart="135.03" departLane="best" departSpeed="max" from="988121254#0" to="988121254#3"/>
    <trip id="veh51" type="veh_passenger" depart="137.73" departLane="best" departSpeed="max" from="-123042405#1" to="-988121254#0"/>
    <trip id="veh52" type="veh_passenger" depart="140.44" departLane="best" departSpeed="max" from="-123042405#1" to="988121254#3"/>
    <trip id="veh53" type="veh_passenger" depart="143.14" departLane="best" departSpeed="max" from="988121254#0" to="-772025578#1"/>
    <trip id="veh54" type="veh_passenger" depart="145.84" departLane="best" departSpeed="max" from="-988121254#3" to="123042405#1"/>
    <trip id="veh55" type="veh_passenger" depart="148.54" departLane="best" departSpeed="max" from="-988121254#3" to="-772025578#1"/>
    <trip id="veh56" type="veh_passenger" depart="151.24" departLane="best" departSpeed="max" from="772025578#0" to="123042405#1"/>
    <trip id="veh57" type="veh_passenger" depart="153.94" departLane="best" departSpeed="max" from="-123042405#1" to="-988121254#0"/>
    <trip id="veh58" type="veh_passenger" depart="156.64" departLane="best" departSpeed="max" from="988121254#0" to="123042405#1"/>
    <trip id="veh59" type="veh_passenger" depart="159.34" departLane="best" departSpeed="max" from="-988121254#3" to="123042405#1"/>
    <trip id="veh60" type="veh_passenger" depart="162.04" departLane="best" departSpeed="max" from="-123042405#1" to="-772025578#1"/>
    <trip id="veh61" type="veh_passenger" depart="164.74" departLane="best" departSpeed="max" from="-988121254#3" to="123042405#1"/>
    <trip id="veh62" type="veh_passenger" depart="167.44" departLane="best" departSpeed="max" from="-123042405#1" to="-772025578#1"/>
    <trip id="veh63" type="veh_passenger" depart="170.14" departLane="best" departSpeed="max" from="-123042405#1" to="988121254#3"/>
    <trip id="veh64" type="veh_passenger" depart="172.84" departLane="best" departSpeed="max" from="988121254#0" to="-772025578#1"/>
    <trip id="veh65" type="veh_passenger" depart="175.54" departLane="best" departSpeed="max" from="-123042405#1" to="-772025578#1"/>
    <trip id="veh66" type="veh_passenger" depart="178.25" departLane="best" departSpeed="max" from="988121254#0" to="123042405#1"/>
    <trip id="veh67" type="veh_passenger" depart="180.95" departLane="best" departSpeed="max" from="988121254#0" to="-772025578#1"/>
    <trip id="veh68" type="veh_passenger" depart="183.65" departLane="best" departSpeed="max" from="-123042405#1" to="-988121254#0"/>
    <trip id="veh69" type="veh_passenger" depart="186.35" departLane="best" departSpeed="max" from="-988121254#3" to="-988121254#0"/>
    <trip id="veh70" type="veh_passenger" depart="189.05" departLane="best" departSpeed="max" from="772025578#0" to="123042405#1"/>
    <trip id="veh71" type="veh_passenger" depart="191.75" departLane="best" departSpeed="max" from="988121254#0" to="-772025578#1"/>
    <trip id="veh72" type="veh_passenger" depart="194.45" departLane="best" departSpeed="max" from="-988121254#3" to="-988121254#0"/>
    <trip id="veh73" type="veh_passenger" depart="197.15" departLane="best" departSpeed="max" from="988121254#0" to="-772025578#1"/>
    <trip id="veh74" type="veh_passenger" depart="199.85" departLane="best" departSpeed="max" from="-123042405#1" to="-988121254#0"/>
    <trip id="veh75" type="veh_passenger" depart="202.55" departLane="best" departSpeed="max" from="-988121254#3" to="-988121254#0"/>
    <trip id="veh76" type="veh_passenger" depart="205.25" departLane="best" departSpeed="max" from="-123042405#1" to="988121254#3"/>
    <trip id="veh77" type="veh_passenger" depart="207.95" departLane="best" departSpeed="max" from="988121254#0" to="988121254#3"/>
    <trip id="veh78" type="veh_passenger" depart="210.65" departLane="best" departSpeed="max" from="988121254#0" to="988121254#3"/>
    <trip id="veh79" type="veh_passenger" depart="213.35" departLane="best" departSpeed="max" from="988121254#0" to="-772025578#1"/>
    <trip id="veh80" type="veh_passenger" depart="216.05" departLane="best" departSpeed="max" from="-988121254#3" to="-772025578#1"/>
    <trip id="veh81" type="veh_passenger" depart="218.76" departLane="best" departSpeed="max" from="-988121254#3" to="-772025578#1"/>
    <trip id="veh82" type="veh_passenger" depart="221.46" departLane="best" departSpeed="max" from="-988121254#3" to="-988121254#0"/>
    <trip id="veh83" type="veh_passenger" depart="224.16" departLane="best" departSpeed="max" from="988121254#0" to="988121254#3"/>
    <trip id="veh84" type="veh_passenger" depart="226.86" departLane="best" departSpeed="max" from="772025578#0" to="123042405#1"/>
    <trip id="veh85" type="veh_passenger" depart="229.56" departLane="best" departSpeed="max" from="-123042405#1" to="-988121254#0"/>
    <trip id="veh86" type="veh_passenger" depart="232.26" departLane="best" departSpeed="max" from="988121254#0" to="123042405#1"/>
    <trip id="veh87" type="veh_passenger" depart="234.96" departLane="best" departSpeed="max" from="772025578#0" to="123042405#1"/>
    <trip id="veh88" type="veh_passenger" depart="237.66" departLane="best" departSpeed="max" from="772025578#0" to="988121254#3"/>
    <trip id="veh89" type="veh_passenger" depart="240.36" departLane="best" departSpeed="max" from="-123042405#1" to="988121254#3"/>
    <trip id="veh90" type="veh_passenger" depart="243.06" departLane="best" departSpeed="max" from="-123042405#1" to="-772025578#1"/>
    <trip id="veh91" type="veh_passenger" depart="245.76" departLane="best" departSpeed="max" from="772025578#0" to="123042405#1"/>
    <trip id="veh92" type="veh_passenger" depart="248.46" departLane="best" departSpeed="max" from="-123042405#1" to="-772025578#1"/>
    <trip id="veh93" type="veh_passenger" depart="251.16" departLane="best" departSpeed="max" from="988121254#0" to="-772025578#1"/>
    <trip id="veh94" type="veh_passenger" depart="253.86" departLane="best" departSpeed="max" from="772025578#0" to="123042405#1"/>
    <trip id="veh95" type="veh_passenger" depart="256.57" departLane="best" departSpeed="max" from="-988121254#3" to="123042405#1"/>
    <trip id="veh96" type="veh_passenger" depart="259.27" departLane="best" departSpeed="max" from="772025578#0" to="988121254#3"/>
    <trip id="veh97" type="veh_passenger" depart="261.97" departLane="best" departSpeed="max" from="-123042405#1" to="-988121254#0"/>
    <trip id="veh98" type="veh_passenger" depart="264.67" departLane="best" departSpeed="max" from="772025578#0" to="-988121254#0"/>
    <trip id="veh99" type="veh_passenger" depart="267.37" departLane="best" departSpeed="max" from="-123042405#1" to="-988121254#0"/>
    <trip id="veh100" type="veh_passenger" depart="270.07" departLane="best" departSpeed="max" from="988121254#0" to="988121254#3"/>
    <trip id="veh101" type="veh_passenger" depart="272.77" departLane="best" departSpeed="max" from="-123042405#1" to="-772025578#1"/>
    <trip id="veh102" type="veh_passenger" depart="275.47" departLane="best" departSpeed="max" from="988121254#0" to="988121254#3"/>
    <trip id="veh103" type="veh_passenger" depart="278.17" departLane="best" departSpeed="max" from="-988121254#3" to="-772025578#1"/>
    <trip id="veh104" type="veh_passenger" depart="280.87" departLane="best" departSpeed="max" from="988121254#0" to="123042405#1"/>
    <trip id="veh105" type="veh_passenger" depart="283.57" departLane="best" departSpeed="max" from="772025578#0" to="988121254#3"/>
    <trip id="veh106" type="veh_passenger" depart="286.27" departLane="best" departSpeed="max" from="772025578#0" to="988121254#3"/>
    <trip id="veh107" type="veh_passenger" depart="288.97" departLane="best" departSpeed="max" from="-123042405#1" to="-772025578#1"/>
    <trip id="veh108" type="veh_passenger" depart="291.67" departLane="best" departSpeed="max" from="-988121254#3" to="123042405#1"/>
    <trip id="veh109" type="veh_passenger" depart="294.37" departLane="best" departSpeed="max" from="772025578#0" to="-988121254#0"/>
    <trip id="veh110" type="veh_passenger" depart="297.08" departLane="best" departSpeed="max" from="988121254#0" to="-772025578#1"/>
    <trip id="veh111" type="veh_passenger" depart="299.78" departLane="best" departSpeed="max" from="-988121254#3" to="-988121254#0"/>
    <trip id="veh112" type="veh_passenger" depart="302.48" departLane="best" departSpeed="max" from="-123042405#1" to="988121254#3"/>
    <trip id="veh113" type="veh_passenger" depart="305.18" departLane="best" departSpeed="max" from="772025578#0" to="-988121254#0"/>
    <trip id="veh114" type="veh_passenger" depart="307.88" departLane="best" departSpeed="max" from="772025578#0" to="123042405#1"/>
    <trip id="veh115" type="veh_passenger" depart="310.58" departLane="best" departSpeed="max" from="-988121254#3" to="-772025578#1"/>
    <trip id="veh116" type="veh_passenger" depart="313.28" departLane="best" departSpeed="max" from="-123042405#1" to="988121254#3"/>
    <trip id="veh117" type="veh_passenger" depart="315.98" departLane="best" departSpeed="max" from="988121254#0" to="123042405#1"/>
    <trip id="veh118" type="veh_passenger" depart="318.68" departLane="best" departSpeed="max" from="988121254#0" to="123042405#1"/>
    <trip id="veh119" type="veh_passenger" depart="321.38" departLane="best" departSpeed="max" from="-123042405#1" to="-772025578#1"/>
    <trip id="veh120" type="veh_passenger" depart="324.08" departLane="best" departSpeed="max" from="988121254#0" to="988121254#3"/>
    <trip id="veh121" type="veh_passenger" depart="326.78" departLane="best" departSpeed="max" from="988121254#0" to="-772025578#1"/>
    <trip id="veh122" type="veh_passenger" depart="329.48" departLane="best" departSpeed="max" from="-123042405#1" to="-772025578#1"/>
    <trip id="veh123" type="veh_passenger" depart="332.18" departLane="best" departSpeed="max" from="988121254#0" to="988121254#3"/>
    <trip id="veh124" type="veh_passenger" depart="334.88" departLane="best" departSpeed="max" from="-988121254#3" to="123042405#1"/>
    <trip id="veh125" type="veh_passenger" depart="337.59" departLane="best" departSpeed="max" from="-123042405#1" to="988121254#3"/>
    <trip id="veh126" type="veh_passenger" depart="340.29" departLane="best" departSpeed="max" from="988121254#0" to="988121254#3"/>
    <trip id="veh127" type="veh_passenger" depart="342.99" departLane="best" departSpeed="max" from="988121254#0" to="988121254#3"/>
    <trip id="veh128" type="veh_passenger" depart="345.69" departLane="best" departSpeed="max" from="988121254#0" to="988121254#3"/>
    <trip id="veh129" type="veh_passenger" depart="348.39" departLane="best" departSpeed="max" from="988121254#0" to="-772025578#1"/>
    <trip id="veh130" type="veh_passenger" depart="351.09" departLane="best" departSpeed="max" from="988121254#0" to="988121254#3"/>
    <trip id="veh131" type="veh_passenger" depart="353.79" departLane="best" departSpeed="max" from="-123042405#1" to="988121254#3"/>
    <trip id="veh132" type="veh_passenger" depart="356.49" departLane="best" departSpeed="max" from="-988121254#3" to="-988121254#0"/>
    <trip id="veh133" type="veh_passenger" depart="359.19" departLane="best" departSpeed="max" from="988121254#0" to="-772025578#1"/>
    <trip id="veh134" type="veh_passenger" depart="361.89" departLane="best" departSpeed="max" from="-123042405#1" to="-772025578#1"/>
    <trip id="veh135" type="veh_passenger" depart="364.59" departLane="best" departSpeed="max" from="772025578#0" to="-988121254#0"/>
    <trip id="veh136" type="veh_passenger" depart="367.29" departLane="best" departSpeed="max" from="988121254#0" to="123042405#1"/>
    <trip id="veh137" type="veh_passenger" depart="369.99" departLane="best" departSpeed="max" from="988121254#0" to="-772025578#1"/>
    <trip id="veh138" type="veh_passenger" depart="372.69" departLane="best" departSpeed="max" from="988121254#0" to="-772025578#1"/>
    <trip id="veh139" type="veh_passenger" depart="375.40" departLane="best" departSpeed="max" from="-123042405#1" to="-988121254#0"/>
    <trip id="veh140" type="veh_passenger" depart="378.10" departLane="best" departSpeed="max" from="772025578#0" to="-988121254#0"/>
    <trip id="veh141" type="veh_passenger" depart="380.80" departLane="best" departSpeed="max" from="772025578#0" to="123042405#1"/>
    <trip id="veh142" type="veh_passenger" depart="383.50" departLane="best" departSpeed="max" from="-988121254#3" to="123042405#1"/>
    <trip id="veh143" type="veh_passenger" depart="386.20" departLane="best" departSpeed="max" from="-988121254#3" to="123042405#1"/>
    <trip id="veh144" type="veh_passenger" depart="388.90" departLane="best" departSpeed="max" from="-123042405#1" to="988121254#3"/>
    <trip id="veh145" type="veh_passenger" depart="391.60" departLane="best" departSpeed="max" from="772025578#0" to="123042405#1"/>
    <trip id="veh146" type="veh_passenger" depart="394.30" departLane="best" departSpeed="max" from="772025578#0" to="123042405#1"/>
    <trip id="veh147" type="veh_passenger" depart="397.00" departLane="best" departSpeed="max" from="-988121254#3" to="-772025578#1"/>
    <trip id="veh148" type="veh_passenger" depart="399.70" departLane="best" departSpeed="max" from="772025578#0" to="-988121254#0"/>
    <trip id="veh149" type="veh_passenger" depart="402.40" departLane="best" departSpeed="max" from="772025578#0" to="-988121254#0"/>
    <trip id="veh150" type="veh_passenger" depart="405.10" departLane="best" departSpeed="max" from="-988121254#3" to="-988121254#0"/>
    <trip id="veh151" type="veh_passenger" depart="407.80" departLane="best" departSpeed="max" from="-988121254#3" to="-988121254#0"/>
    <trip id="veh152" type="veh_passenger" depart="410.50" departLane="best" departSpeed="max" from="-123042405#1" to="-988121254#0"/>
    <trip id="veh153" type="veh_passenger" depart="413.20" departLane="best" departSpeed="max" from="988121254#0" to="123042405#1"/>
    <trip id="veh154" type="veh_passenger" depart="415.91" departLane="best" departSpeed="max" from="988121254#0" to="123042405#1"/>
    <trip id="veh155" type="veh_passenger" depart="418.61" departLane="best" departSpeed="max" from="-988121254#3" to="123042405#1"/>
    <trip id="veh156" type="veh_passenger" depart="421.31" departLane="best" departSpeed="max" from="-123042405#1" to="-988121254#0"/>
    <trip id="veh157" type="veh_passenger" depart="424.01" departLane="best" departSpeed="max" from="-988121254#3" to="123042405#1"/>
    <trip id="veh158" type="veh_passenger" depart="426.71" departLane="best" departSpeed="max" from="772025578#0" to="-988121254#0"/>
    <trip id="veh159" type="veh_passenger" depart="429.41" departLane="best" departSpeed="max" from="-988121254#3" to="-772025578#1"/>
    <trip id="veh160" type="veh_passenger" depart="432.11" departLane="best" departSpeed="max" from="988121254#0" to="-772025578#1"/>
    <trip id="veh161" type="veh_passenger" depart="434.81" departLane="best" departSpeed="max" from="772025578#0" to="-988121254#0"/>
    <trip id="veh162" type="veh_passenger" depart="437.51" departLane="best" departSpeed="max" from="988121254#0" to="988121254#3"/>
    <trip id="veh163" type="veh_passenger" depart="440.21" departLane="best" departSpeed="max" from="-123042405#1" to="-772025578#1"/>
    <trip id="veh164" type="veh_passenger" depart="442.91" departLane="best" departSpeed="max" from="-123042405#1" to="-988121254#0"/>
    <trip id="veh165" type="veh_passenger" depart="445.61" departLane="best" departSpeed="max" from="988121254#0" to="-772025578#1"/>
    <trip id="veh166" type="veh_passenger" depart="448.31" departLane="best" departSpeed="max" from="-988121254#3" to="123042405#1"/>
    <trip id="veh167" type="veh_passenger" depart="451.01" departLane="best" departSpeed="max" from="-988121254#3" to="-772025578#1"/>
    <trip id="veh168" type="veh_passenger" depart="453.72" departLane="best" departSpeed="max" from="988121254#0" to="988121254#3"/>
    <trip id="veh169" type="veh_passenger" depart="456.42" departLane="best" departSpeed="max" from="-123042405#1" to="-988121254#0"/>
    <trip id="veh170" type="veh_passenger" depart="459.12" departLane="best" departSpeed="max" from="-123042405#1" to="988121254#3"/>
    <trip id="veh171" type="veh_passenger" depart="461.82" departLane="best" departSpeed="max" from="-123042405#1" to="988121254#3"/>
    <trip id="veh172" type="veh_passenger" depart="464.52" departLane="best" departSpeed="max" from="772025578#0" to="988121254#3"/>
    <trip id="veh173" type="veh_passenger" depart="467.22" departLane="best" departSpeed="max" from="772025578#0" to="988121254#3"/>
    <trip id="veh174" type="veh_passenger" depart="469.92" departLane="best" departSpeed="max" from="988121254#0" to="123042405#1"/>
    <trip id="veh175" type="veh_passenger" depart="472.62" departLane="best" departSpeed="max" from="772025578#0" to="123042405#1"/>
    <trip id="veh176" type="veh_passenger" depart="475.32" departLane="best" departSpeed="max" from="988121254#0" to="123042405#1"/>
    <trip id="veh177" type="veh_passenger" depart="478.02" departLane="best" departSpeed="max" from="988121254#0" to="123042405#1"/>
    <trip id="veh178" type="veh_passenger" depart="480.72" departLane="best" departSpeed="max" from="-988121254#3" to="-988121254#0"/>
    <trip id="veh179" type="veh_passenger" depart="483.42" departLane="best" departSpeed="max" from="988121254#0" to="123042405#1"/>
    <trip id="veh180" type="veh_passenger" depart="486.12" departLane="best" departSpeed="max" from="772025578#0" to="-988121254#0"/>
    <trip id="veh181" type="veh_passenger" depart="488.82" departLane="best" departSpeed="max" from="-123042405#1" to="-988121254#0"/>
    <trip id="veh182" type="veh_passenger" depart="491.52" departLane="best" departSpeed="max" from="-988121254#3" to="-988121254#0"/>
    <trip id="veh183" type="veh_passenger" depart="494.23" departLane="best" departSpeed="max" from="-988121254#3" to="123042405#1"/>
    <trip id="veh184" type="veh_passenger" depart="496.93" departLane="best" departSpeed="max" from="-988121254#3" to="-772025578#1"/>
    <trip id="veh185" type="veh_passenger" depart="499.63" departLane="best" departSpeed="max" from="772025578#0" to="123042405#1"/>
    <trip id="veh186" type="veh_passenger" depart="502.33" departLane="best" departSpeed="max" from="988121254#0" to="988121254#3"/>
    <trip id="veh187" type="veh_passenger" depart="505.03" departLane="best" departSpeed="max" from="-988121254#3" to="-772025578#1"/>
    <trip id="veh188" type="veh_passenger" depart="507.73" departLane="best" departSpeed="max" from="988121254#0" to="988121254#3"/>
    <trip id="veh189" type="veh_passenger" depart="510.43" departLane="best" departSpeed="max" from="-988121254#3" to="123042405#1"/>
    <trip id="veh190" type="veh_passenger" depart="513.13" departLane="best" departSpeed="max" from="772025578#0" to="123042405#1"/>
    <trip id="veh191" type="veh_passenger" depart="515.83" departLane="best" departSpeed="max" from="-123042405#1" to="-772025578#1"/>
    <trip id="veh192" type="veh_passenger" depart="518.53" departLane="best" departSpeed="max" from="-988121254#3" to="-772025578#1"/>
    <trip id="veh193" type="veh_passenger" depart="521.23" departLane="best" departSpeed="max" from="-988121254#3" to="123042405#1"/>
    <trip id="veh194" type="veh_passenger" depart="523.93" departLane="best" departSpeed="max" from="-988121254#3" to="-772025578#1"/>
    <trip id="veh195" type="veh_passenger" depart="526.63" departLane="best" departSpeed="max" from="-988121254#3" to="-772025578#1"/>
    <trip id="veh196" type="veh_passenger" depart="529.33" departLane="best" departSpeed="max" from="-988121254#3" to="123042405#1"/>
    <trip id="veh197" type="veh_passenger" depart="532.04" departLane="best" departSpeed="max" from="-123042405#1" to="-988121254#0"/>
    <trip id="veh198" type="veh_passenger" depart="534.74" departLane="best" departSpeed="max" from="-123042405#1" to="-988121254#0"/>
    <trip id="veh199" type="veh_passenger" depart="537.44" departLane="best" departSpeed="max" from="-123042405#1" to="-988121254#0"/>
    <trip id="veh200" type="veh_passenger" depart="540.14" departLane="best" departSpeed="max" from="988121254#0" to="988121254#3"/>
    <trip id="veh201" type="veh_passenger" depart="542.84" departLane="best" departSpeed="max" from="-988121254#3" to="-772025578#1"/>
    <trip id="veh202" type="veh_passenger" depart="545.54" departLane="best" departSpeed="max" from="772025578#0" to="988121254#3"/>
    <trip id="veh203" type="veh_passenger" depart="548.24" departLane="best" departSpeed="max" from="772025578#0" to="988121254#3"/>
    <trip id="veh204" type="veh_passenger" depart="550.94" departLane="best" departSpeed="max" from="988121254#0" to="-772025578#1"/>
    <trip id="veh205" type="veh_passenger" depart="553.64" departLane="best" departSpeed="max" from="-123042405#1" to="-772025578#1"/>
    <trip id="veh206" type="veh_passenger" depart="556.34" departLane="best" departSpeed="max" from="772025578#0" to="988121254#3"/>
    <trip id="veh207" type="veh_passenger" depart="559.04" departLane="best" departSpeed="max" from="988121254#0" to="988121254#3"/>
    <trip id="veh208" type="veh_passenger" depart="561.74" departLane="best" departSpeed="max" from="-123042405#1" to="-772025578#1"/>
    <trip id="veh209" type="veh_passenger" depart="564.44" departLane="best" departSpeed="max" from="-988121254#3" to="123042405#1"/>
    <trip id="veh210" type="veh_passenger" depart="567.14" departLane="best" departSpeed="max" from="772025578#0" to="123042405#1"/>
    <trip id="veh211" type="veh_passenger" depart="569.84" departLane="best" departSpeed="max" from="-123042405#1" to="988121254#3"/>
    <trip id="veh212" type="veh_passenger" depart="572.55" departLane="best" departSpeed="max" from="988121254#0" to="123042405#1"/>
    <trip id="veh213" type="veh_passenger" depart="575.25" departLane="best" departSpeed="max" from="-123042405#1" to="988121254#3"/>
    <trip id="veh214" type="veh_passenger" depart="577.95" departLane="best" departSpeed="max" from="-988121254#3" to="-988121254#0"/>
    <trip id="veh215" type="veh_passenger" depart="580.65" departLane="best" departSpeed="max" from="772025578#0" to="-988121254#0"/>
    <trip id="veh216" type="veh_passenger" depart="583.35" departLane="best" departSpeed="max" from="988121254#0" to="988121254#3"/>