<?xml version="1.0" encoding="UTF-8"?>

<!-- generated on Sat Feb 26 17:05:02 2022 by Eclipse SUMO duarouter Version 1.8.0
<configuration xmlns:xsi="http://www.w3.org/2001/XMLSchema-instance" xsi:noNamespaceSchemaLocation="http://sumo.dlr.de/xsd/duarouterConfiguration.xsd">

    <input>
        <net-file value="/home/alex/Downloads/2022-02-26-17-05-01/osm.net.xml"/>
        <route-files value="/home/alex/Downloads/2022-02-26-17-05-01/osm.passenger.trips.xml"/>
    </input>

    <output>
        <output-file value="/home/alex/Downloads/2022-02-26-17-05-01/osm.passenger.trips.xml.tmp"/>
        <write-trips value="true"/>
    </output>

    <time>
        <begin value="0"/>
        <end value="3600"/>
    </time>

    <report>
        <no-warnings value="true"/>
        <ignore-errors value="true"/>
        <no-step-log value="true"/>
    </report>

</configuration>
-->

<routes xmlns:xsi="http://www.w3.org/2001/XMLSchema-instance" xsi:noNamespaceSchemaLocation="http://sumo.dlr.de/xsd/routes_file.xsd">
    <vType id="veh_passenger" vClass="passenger"/>
    <trip id="veh0" type="veh_passenger" depart="0.00" departLane="best" departSpeed="max" from="-36689634#2" to="-73310501#2"/>
    <trip id="veh1" type="veh_passenger" depart="4.08" departLane="best" departSpeed="max" from="73310501#0" to="36689634#0"/>
    <trip id="veh2" type="veh_passenger" depart="8.16" departLane="best" departSpeed="max" from="73310501#0" to="-297373653#2"/>
    <trip id="veh3" type="veh_passenger" depart="12.25" departLane="best" departSpeed="max" from="-36689634#2" to="-297373653#2"/>
    <trip id="veh4" type="veh_passenger" depart="16.33" departLane="best" departSpeed="max" from="-36689634#2" to="-73310501#2"/>
    <trip id="veh5" type="veh_passenger" depart="20.41" departLane="best" departSpeed="max" from="297373653#0" to="36689634#0"/>
    <trip id="veh6" type="veh_passenger" depart="24.49" departLane="best" departSpeed="max" from="73310501#0" to="-297373653#2"/>
    <trip id="veh7" type="veh_passenger" depart="28.57" departLane="best" departSpeed="max" from="73310501#0" to="36689634#0"/>
    <trip id="veh8" type="veh_passenger" depart="32.66" departLane="best" departSpeed="max" from="-36689634#2" to="-297373653#2"/>
    <trip id="veh9" type="veh_passenger" depart="36.74" departLane="best" departSpeed="max" from="-36689634#2" to="-297373653#2"/>
    <trip id="veh10" type="veh_passenger" depart="40.82" departLane="best" departSpeed="max" from="73310501#0" to="36689634#0"/>
    <trip id="veh11" type="veh_passenger" depart="44.90" departLane="best" departSpeed="max" from="73310501#0" to="36689634#0"/>
    <trip id="veh12" type="veh_passenger" depart="48.98" departLane="best" departSpeed="max" from="73310501#0" to="36689634#0"/>
    <trip id="veh13" type="veh_passenger" depart="53.07" departLane="best" departSpeed="max" from="73310501#0" to="36689634#0"/>
    <trip id="veh14" type="veh_passenger" depart="57.15" departLane="best" departSpeed="max" from="-36689634#2" to="-73310501#2"/>
    <trip id="veh15" type="veh_passenger" depart="61.23" departLane="best" departSpeed="max" from="-36689634#2" to="-73310501#2"/>
    <trip id="veh16" type="veh_passenger" depart="65.31" departLane="best" departSpeed="max" from="-36689634#2" to="-73310501#2"/>
    <trip id="veh17" type="veh_passenger" depart="69.39" departLane="best" departSpeed="max" from="297373653#0" to="-73310501#2"/>
    <trip id="veh18" type="veh_passenger" depart="73.48" departLane="best" departSpeed="max" from="-36689634#2" to="-73310501#2"/>
    <trip id="veh19" type="veh_passenger" depart="77.56" departLane="best" departSpeed="max" from="297373653#0" to="36689634#0"/>
    <trip id="veh20" type="veh_passenger" depart="81.64" departLane="best" departSpeed="max" from="-36689634#2" to="-73310501#2"/>
    <trip id="veh21" type="veh_passenger" depart="85.72" departLane="best" departSpeed="max" from="73310501#0" to="36689634#0"/>
    <trip id="veh22" type="veh_passenger" depart="89.80" departLane="best" departSpeed="max" from="73310501#0" to="36689634#0"/>
    <trip id="veh23" type="veh_passenger" depart="93.89" departLane="best" departSpeed="max" from="-36689634#2" to="-297373653#2"/>
    <trip id="veh24" type="veh_passenger" depart="97.97" departLane="best" departSpeed="max" from="-36689634#2" to="-73310501#2"/>
    <trip id="veh25" type="veh_passenger" depart="102.05" departLane="best" departSpeed="max" from="297373653#0" to="-73310501#2"/>
    <trip id="veh26" type="veh_passenger" depart="106.13" departLane="best" departSpeed="max" from="-36689634#2" to="-73310501#2"/>
    <trip id="veh27" type="veh_passenger" depart="110.21" departLane="best" departSpeed="max" from="297373653#0" to="73310497#0"/>
    <trip id="veh28" type="veh_passenger" depart="114.30" departLane="best" departSpeed="max" from="-36689634#2" to="-73310501#2"/>
    <trip id="veh29" type="veh_passenger" depart="118.38" departLane="best" departSpeed="max" from="73310501#0" to="36689634#0"/>
    <trip id="veh30" type="veh_passenger" depart="122.46" departLane="best" departSpeed="max" from="-36689634#2" to="-297373653#2"/>
    <trip id="veh31" type="veh_passenger" depart="126.54" departLane="best" departSpeed="max" from="-36689634#2" to="-73310501#2"/>
    <trip id="veh32" type="veh_passenger" depart="130.62" departLane="best" departSpeed="max" from="73310501#0" to="36689634#0"/>
    <trip id="veh33" type="veh_passenger" depart="134.70" departLane="best" departSpeed="max" from="297373653#0" to="36689634#0"/>
    <trip id="veh34" type="veh_passenger" depart="138.79" departLane="best" departSpeed="max" from="-36689634#2" to="-73310501#2"/>
    <trip id="veh35" type="veh_passenger" depart="142.87" departLane="best" departSpeed="max" from="73310501#0" to="36689634#0"/>
    <trip id="veh36" type="veh_passenger" depart="146.95" departLane="best" departSpeed="max" from="73310501#0" to="36689634#0"/>
    <trip id="veh37" type="veh_passenger" depart="151.03" departLane="best" departSpeed="max" from="-36689634#2" to="-73310501#2"/>
    <trip id="veh38" type="veh_passenger" depart="155.11" departLane="best" departSpeed="max" from="73310501#0" to="36689634#0"/>
    <trip id="veh39" type="veh_passenger" depart="159.20" departLane="best" departSpeed="max" from="-36689634#2" to="-297373653#2"/>
    <trip id="veh40" type="veh_passenger" depart="163.28" departLane="best" departSpeed="max" from="-36689634#2" to="-73310501#2"/>
    <trip id="veh41" type="veh_passenger" depart="167.36" departLane="best" departSpeed="max" from="73310501#0" to="-297373653#2"/>
    <trip id="veh42" type="veh_passenger" depart="171.44" departLane="best" departSpeed="max" from="-36689634#2" to="-73310501#2"/>
    <trip id="veh43" type="veh_passenger" depart="175.52" departLane="best" departSpeed="max" from="-36689634#2" to="-73310501#2"/>
    <trip id="veh44" type="veh_passenger" depart="179.61" departLane="best" departSpeed="max" from="73310501#0" to="36689634#0"/>
    <trip id="veh45" type="veh_passenger" depart="183.69" departLane="best" departSpeed="max" from="-36689634#2" to="-73310501#2"/>
    <trip id="veh46" type="veh_passenger" depart="187.77" departLane="best" departSpeed="max" from="-36689634#2" to="-73310501#2"/>
    <trip id="veh47" type="veh_passenger" depart="191.85" departLane="best" departSpeed="max" from="73310501#0" to="-297373653#2"/>
    <trip id="veh48" type="veh_passenger" depart="195.93" departLane="best" departSpeed="max" from="-36689634#2" to="-297373653#2"/>
    <trip id="veh49" type="veh_passenger" depart="200.02" departLane="best" departSpeed="max" from="73310501#0" to="36689634#0"/>
    <trip id="veh50" type="veh_passenger" depart="204.10" departLane="best" departSpeed="max" from="-36689634#2" to="-73310501#2"/>
    <trip id="veh51" type="veh_passenger" depart="208.18" departLane="best" departSpeed="max" from="-36689634#2" to="-73310501#2"/>
    <trip id="veh52" type="veh_passenger" depart="212.26" departLane="best" departSpeed="max" from="73310501#0" to="36689634#0"/>
    <trip id="veh53" type="veh_passenger" depart="216.34" departLane="best" departSpeed="max" from="73310501#0" to="-297373653#2"/>
    <trip id="veh54" type="veh_passenger" depart="220.43" departLane="best" departSpeed="max" from="-36689634#2" to="-73310501#2"/>
    <trip id="veh55" type="veh_passenger" depart="224.51" departLane="best" departSpeed="max" from="-36689634#2" to="-73310501#2"/>
    <trip id="veh56" type="veh_passenger" depart="228.59" departLane="best" departSpeed="max" from="-36689634#2" to="-73310501#2"/>
    <trip id="veh57" type="veh_passenger" depart="232.67" departLane="best" departSpeed="max" from="-73310497#2" to="-297373653#2"/>
    <trip id="veh58" type="veh_passenger" depart="236.75" departLane="best" departSpeed="max" from="73310501#0" to="-297373653#2"/>
    <trip id="veh59" type="veh_passenger" depart="240.84" departLane="best" departSpeed="max" from="-36689634#2" to="-297373653#2"/>
    <trip id="veh60" type="veh_passenger" depart="244.92" departLane="best" departSpeed="max" from="-36689634#2" to="-73310501#2"/>
    <trip id="veh61" type="veh_passenger" depart="249.00" departLane="best" departSpeed="max" from="73310501#0" to="36689634#0"/>
    <trip id="veh62" type="veh_passenger" depart="253.08" departLane="best" departSpeed="max" from="-36689634#2" to="-73310501#2"/>
    <trip id="veh63" type="veh_passenger" depart="257.16" departLane="best" departSpeed="max" from="297373653#0" to="36689634#0"/>
    <trip id="veh64" type="veh_passenger" depart="261.25" departLane="best" departSpeed="max" from="-36689634#2" to="-297373653#2"/>
    <trip id="veh65" type="veh_passenger" depart="265.33" departLane="best" departSpeed="max" from="297373653#0" to="36689634#0"/>
    <trip id="veh66" type="veh_passenger" depart="269.41" departLane="best" departSpeed="max" from="-36689634#2" to="-73310501#2"/>
    <trip id="veh67" type="veh_passenger" depart="273.49" departLane="best" departSpeed="max" from="297373653#0" to="-73310501#2"/>
    <trip id="veh68" type="veh_passenger" depart="277.57" departLane="best" departSpeed="max" from="-36689634#2" to="-73310501#2"/>
    <trip id="veh69" type="veh_passenger" depart="281.66" departLane="best" departSpeed="max" from="-36689634#2" to="-73310501#2"/>
    <trip id="veh70" type="veh_passenger" depart="285.74" departLane="best" departSpeed="max" from="-36689634#2" to="-297373653#2"/>
    <trip id="veh71" type="veh_passenger" depart="289.82" departLane="best" departSpeed="max" from="73310501#0" to="36689634#0"/>
    <trip id="veh72" type="veh_passenger" depart="293.90" departLane="best" departSpeed="max" from="297373653#0" to="73310497#0"/>
    <trip id="veh73" type="veh_passenger" depart="297.98" departLane="best" departSpeed="max" from="297373653#0" to="73310497#0"/>
    <trip id="veh74" type="veh_passenger" depart="302.07" departLane="best" departSpeed="max" from="-36689634#2" to="-297373653#2"/>
    <trip id="veh75" type="veh_passenger" depart="306.15" departLane="best" departSpeed="max" from="297373653#0" to="-73310501#2"/>
    <trip id="veh76" type="veh_passenger" depart="310.23" departLane="best" departSpeed="max" from="73310501#0" to="-297373653#2"/>
    <trip id="veh77" type="veh_passenger" depart="314.31" departLane="best" departSpeed="max" from="-36689634#2" to="-73310501#2"/>
    <trip id="veh78" type="veh_passenger" depart="318.39" departLane="best" departSpeed="max" from="297373653#0" to="-73310501#2"/>
    <trip id="veh79" type="veh_passenger" depart="322.48" departLane="best" departSpeed="max" from="73310501#0" to="36689634#0"/>
    <trip id="veh80" type="veh_passenger" depart="326.56" departLane="best" departSpeed="max" from="-36689634#2" to="-297373653#2"/>
    <trip id="veh81" type="veh_passenger" depart="330.64" departLane="best" departSpeed="max" from="73310501#0" to="36689634#0"/>
    <trip id="veh82" type="veh_passenger" depart="334.72" departLane="best" departSpeed="max" from="73310501#0" to="36689634#0"/>
    <trip id="veh83" type="veh_passenger" depart="338.80" departLane="best" departSpeed="max" from="-36689634#2" to="-297373653#2"/>
    <trip id="veh84" type="veh_passenger" depart="342.89" departLane="best" departSpeed="max" from="-36689634#2" to="-297373653#2"/>
    <trip id="veh85" type="veh_passenger" depart="346.97" departLane="best" departSpeed="max" from="73310501#0" to="-297373653#2"/>
    <trip id="veh86" type="veh_passenger" depart="351.05" departLane="best" departSpeed="max" from="-36689634#2" to="-73310501#2"/>
    <trip id="veh87" type="veh_passenger" depart="355.13" departLane="best" departSpeed="max" from="297373653#0" to="-73310501#2"/>
    <trip id="veh88" type="veh_passenger" depart="359.21" departLane="best" departSpeed="max" from="73310501#0" to="36689634#0"/>
    <trip id="veh89" type="veh_passenger" depart="363.29" departLane="best" departSpeed="max" from="73310501#0" to="-297373653#2"/>
    <trip id="veh90" type="veh_passenger" depart="367.38" departLane="best" departSpeed="max" from="-36689634#2" to="-73310501#2"/>
    <trip id="veh91" type="veh_passenger" depart="371.46" departLane="best" departSpeed="max" from="297373653#0" to="36689634#0"/>
    <trip id="veh92" type="veh_passenger" depart="375.54" departLane="best" departSpeed="max" from="73310501#0" to="36689634#0"/>
    <trip id="veh93" type="veh_passenger" depart="379.62" departLane="best" departSpeed="max" from="-36689634#2" to="-297373653#2"/>
    <trip id="veh94" type="veh_passenger" depart="383.70" departLane="best" departSpeed="max" from="297373653#0" to="-73310501#2"/>
    <trip id="veh95" type="veh_passenger" depart="387.79" departLane="best" departSpeed="max" from="-36689634#2" to="-73310501#2"/>
    <trip id="veh96" type="veh_passenger" depart="391.87" departLane="best" departSpeed="max" from="-36689634#2" to="-73310501#2"/>
    <trip id="veh97" type="veh_passenger" depart="395.95" departLane="best" departSpeed="max" from="-36689634#2" to="-73310501#2"/>
    <trip id="veh98" type="veh_passenger" depart="400.03" departLane="best" departSpeed="max" from="73310501#0" to="36689634#0"/>
    <trip id="veh99" type="veh_passenger" depart="404.11" departLane="best" departSpeed="max" from="73310501#0" to="36689634#0"/>
    <trip id="veh100" type="veh_passenger" depart="408.20" departLane="best" departSpeed="max" from="-36689634#2" to="-73310501#2"/>
    <trip id="veh101" type="veh_passenger" depart="412.28" departLane="best" departSpeed="max" from="297373653#0" to="-73310501#2"/>
    <trip id="veh102" type="veh_passenger" depart="416.36" departLane="best" departSpeed="max" from="297373653#0" to="-73310501#2"/>
    <trip id="veh103" type="veh_passenger" depart="420.44" departLane="best" departSpeed="max" from="73310501#0" to="36689634#0"/>
    <trip id="veh104" type="veh_passenger" depart="424.52" departLane="best" departSpeed="max" from="297373653#0" to="-73310501#2"/>
    <trip id="veh105" type="veh_passenger" depart="428.61" departLane="best" departSpeed="max" from="-36689634#2" to="-297373653#2"/>
    <trip id="veh106" type="veh_passenger" depart="432.69" departLane="best" departSpeed="max" from="-36689634#2" to="-73310501#2"/>
    <trip id="veh107" type="veh_passenger" depart="436.77" departLane="best" departSpeed="max" from="73310501#0" to="-297373653#2"/>
    <trip id="veh108" type="veh_passenger" depart="440.85" departLane="best" departSpeed="max" from="73310501#0" to="36689634#0"/>
    <trip id="veh109" type="veh_passenger" depart="444.93" departLane="best" departSpeed="max" from="-36689634#2" to="-73310501#2"/>
    <trip id="veh110" type="veh_passenger" depart="449.02" departLane="best" departSpeed="max" from="-73310497#2" to="-297373653#2"/>
    <trip id="veh111" type="veh_passenger" depart="453.10" departLane="best" departSpeed="max" from="297373653#0" to="73310497#0"/>
    <trip id="veh112" type="veh_passenger" depart="457.18" departLane="best" departSpeed="max" from="297373653#0" to="73310497#0"/>
    <trip id="veh113" type="veh_passenger" depart="461.26" departLane="best" departSpeed="max" from="73310501#0" to="36689634#0"/>
    <trip id="veh114" type="veh_passenger" depart="465.34" departLane="best" departSpeed="max" from="73310501#0" to="36689634#0"/>
    <trip id="veh115" type="veh_passenger" depart="469.43" departLane="best" departSpeed="max" from="73310501#0" to="36689634#0"/>
    <trip id="veh116" type="veh_passenger" depart="473.51" departLane="best" departSpeed="max" from="73310501#0" to="36689634#0"/>
    <trip id="veh117" type="veh_passenger" depart="477.59" departLane="best" departSpeed="max" from="73310501#0" to="36689634#0"/>
    <trip id="veh118" type="veh_passenger" depart="481.67" departLane="best" departSpeed="max" from="297373653#0" to="-73310501#2"/>
    <trip id="veh119" type="veh_passenger" depart="485.75" departLane="best" departSpeed="max" from="-36689634#2" to="-73310501#2"/>
    <trip id="veh120" type="veh_passenger" depart="489.84" departLane="best" departSpeed="max" from="-36689634#2" to="-73310501#2"/>
    <trip id="veh121" type="veh_passenger" depart="493.92" departLane="best" departSpeed="max" from="-73310497#2" to="-297373653#2"/>
    <trip id="veh122" type="veh_passenger" depart="498.00" departLane="best" departSpeed="max" from="-36689634#2" to="-73310501#2"/>
    <trip id="veh123" type="veh_passenger" depart="502.08" departLane="best" departSpeed="max" from="297373653#0" to="36689634#0"/>
    <trip id="veh124" type="veh_passenger" depart="506.16" departLane="best" departSpeed="max" from="73310501#0" to="36689634#0"/>
    <trip id="veh125" type="veh_passenger" depart="510.25" departLane="best" departSpeed="max" from="-36689634#2" to="-297373653#2"/>
    <trip id="veh126" type="veh_passenger" depart="514.33" departLane="best" departSpeed="max" from="-36689634#2" to="-73310501#2"/>
    <trip id="veh127" type="veh_passenger" depart="518.41" departLane="best" departSpeed="max" from="-73310497#2" to="-297373653#2"/>
    <trip id="veh128" type="veh_passenger" depart="522.49" departLane="best" departSpeed="max" from="-36689634#2" to="-297373653#2"/>
    <trip id="veh129" type="veh_passenger" depart="526.57" departLane="best" departSpeed="max" from="-73310497#2" to="-297373653#2"/>
    <trip id="veh130" type="veh_passenger" depart="530.66" departLane="best" departSpeed="max" from="-36689634#2" to="-73310501#2"/>
    <trip id="veh131" type="veh_passenger" depart="534.74" departLane="best" departSpeed="max" from="-36689634#2" to="-73310501#2"/>
    <trip id="veh132" type="veh_passenger" depart="538.82" departLane="best" departSpeed="max" from="-36689634#2" to="-73310501#2"/>
    <trip id="veh133" type="veh_passenger" depart="542.90" departLane="best" departSpeed="max" from="73310501#0" to="36689634#0"/>
    <trip id="veh134" type="veh_passenger" depart="546.98" departLane="best" departSpeed="max" from="-36689634#2" to="-297373653#2"/>
    <trip id="veh135" type="veh_passenger" depart="551.07" departLane="best" departSpeed="max" from="297373653#0" to="36689634#0"/>
    <trip id="veh136" type="veh_passenger" depart="555.15" departLane="best" departSpeed="max" from="297373653#0" to="36689634#0"/>
    <trip id="veh137" type="veh_passenger" depart="559.23" departLane="best" departSpeed="max" from="-36689634#2" to="-297373653#2"/>
    <trip id="veh138" type="veh_passenger" depart="563.31" departLane="best" departSpeed="max" from="297373653#0" to="36689634#0"/>
    <trip id="veh139" type="veh_passenger" depart="567.39" departLane="best" departSpeed="max" from="73310501#0" to="-297373653#2"/>
    <trip id="veh140" type="veh_passenger" depart="571.48" departLane="best" departSpeed="max" from="-36689634#2" to="-297373653#2"/>
    <trip id="veh141" type="veh_passenger" depart="575.56" departLane="best" departSpeed="max" from="73310501#0" to="-297373653#2"/>
    <trip id="veh142" type="veh_passenger" depart="579.64" departLane="best" departSpeed="max" from="297373653#0" to="36689634#0"/>
    <trip id="veh143" type="veh_passenger" depart="583.72" departLane="best" departSpeed="max" from="73310501#0" to="36689634#0"/>
    <trip id="veh144" type="veh_passenger" depart="587.80" departLane="best" departSpeed="max" from="-36689634#2" to="-73310501#2"/>
    <trip id="veh145" type="veh_passenger" depart="591.89" departLane="best" departSpeed="max" from="73310501#0" to="36689634#0"/>
    <trip id="veh146" type="veh_passenger" depart="595.97" departLane="best" departSpeed="max" from="297373653#0" to="36689634#0"/>
    <trip id="veh147" type="veh_passenger" depart="600.05" departLane="best" departSpeed="max" from="297373653#0" to="-73310501#2"/>
    <trip id="veh148" type="veh_passenger" depart="604.13" departLane="best" departSpeed="max" from="73310501#0" to="-297373653#2"/>
    <trip id="veh149" type="veh_passenger" depart="608.21" departLane="best" departSpeed="max" from="-36689634#2" to="-297373653#2"/>
    <trip id="veh150" type="veh_passenger" depart="612.29" departLane="best" departSpeed="max" from="297373653#0" to="-73310501#2"/>
    <trip id="veh151" type="veh_passenger" depart="616.38" departLane="best" departSpeed="max" from="297373653#0" to="36689634#0"/>
    <trip id="veh152" type="veh_passenger" depart="620.46" departLane="best" departSpeed="max" from="-36689634#2" to="-73310501#2"/>
    <trip id="veh153" type="veh_passenger" depart="624.54" departLane="best" departSpeed="max" from="297373653#0" to="-73310501#2"/>
    <trip id="veh154" type="veh_passenger" depart="628.62" departLane="best" departSpeed="max" from="297373653#0" to="-73310501#2"/>
    <trip id="veh155" type="veh_passenger" depart="632.70" departLane="best" departSpeed="max" from="297373653#0" to="-73310501#2"/>
    <trip id="veh156" type="veh_passenger" depart="636.79" departLane="best" departSpeed="max" from="-36689634#2" to="-297373653#2"/>
    <trip id="veh157" type="veh_passenger" depart="640.87" departLane="best" departSpeed="max" from="-36689634#2" to="-297373653#2"/>
    <trip id="veh158" type="veh_passenger" depart="644.95" departLane="best" departSpeed="max" from="-36689634#2" to="-73310501#2"/>
    <trip id="veh159" type="veh_passenger" depart="649.03" departLane="best" departSpeed="max" from="73310501#0" to="36689634#0"/>
    <trip id="veh160" type="veh_passenger" depart="653.11" departLane="best" departSpeed="max" from="-36689634#2" to="-297373653#2"/>
    <trip id="veh161" type="veh_passenger" depart="657.20" departLane="best" departSpeed="max" from="-36689634#2" to="-73310501#2"/>
    <trip id="veh162" type="veh_passenger" depart="661.28" departLane="best" departSpeed="max" from="-36689634#2" to="-297373653#2"/>
    <trip id="veh163" type="veh_passenger" depart="665.36" departLane="best" departSpeed="max" from="73310501#0" to="36689634#0"/>
    <trip id="veh164" type="veh_passenger" depart="669.44" departLane="best" departSpeed="max" from="73310501#0" to="36689634#0"/>
    <trip id="veh165" type="veh_passenger" depart="673.52" departLane="best" departSpeed="max" from="-36689634#2" to="-297373653#2"/>
    <trip id="veh166" type="veh_passenger" depart="677.61" departLane="best" departSpeed="max" from="-36689634#2" to="-297373653#2"/>
    <trip id="veh167" type="veh_passenger" depart="681.69" departLane="best" departSpeed="max" from="73310501#0" to="-297373653#2"/>
    <trip id="veh168" type="veh_passenger" depart="685.77" departLane="best" departSpeed="max" from="73310501#0" to="36689634#0"/>
    <trip id="veh169" type="veh_passenger" depart="689.85" departLane="best" departSpeed="max" from="297373653#0" to="36689634#0"/>
    <trip id="veh170" type="veh_passenger" depart="693.93" departLane="best" departSpeed="max" from="-36689634#2" to="-73310501#2"/>
    <trip id="veh171" type="veh_passenger" depart="698.02" departLane="best" departSpeed="max" from="-36689634#2" to="-297373653#2"/>
    <trip id="veh172" type="veh_passenger" depart="702.10" departLane="best" departSpeed="max" from="-36689634#2" to="-73310501#2"/>
    <trip id="veh173" type="veh_passenger" depart="706.18" departLane="best" departSpeed="max" from="297373653#0" to="-73310501#2"/>
    <trip id="veh174" type="veh_passenger" depart="710.26" departLane="best" departSpeed="max" from="297373653#0" to="-73310501#2"/>
    <trip id="veh175" type="veh_passenger" depart="714.34" departLane="best" departSpeed="max" from="297373653#0" to="73310497#0"/>
    <trip id="veh176" type="veh_passenger" depart="718.43" departLane="best" departSpeed="max" from="73310501#0" to="36689634#0"/>
    <trip id="veh177" type="veh_passenger" depart="722.51" departLane="best" departSpeed="max" from="297373653#0" to="73310497#0"/>
    <trip id="veh178" type="veh_passenger" depart="726.59" departLane="best" departSpeed="max" from="297373653#0" to="73310497#0"/>
    <trip id="veh179" type="veh_passenger" depart="730.67" departLane="best" departSpeed="max" from="73310501#0" to="-297373653#2"/>
    <trip id="veh180" type="veh_passenger" depart="734.75" departLane="best" departSpeed="max" from="-36689634#2" to="-73310501#2"/>
    <trip id="veh181" type="veh_passenger" depart="738.84" departLane="best" departSpeed="max" from="73310501#0" to="36689634#0"/>
    <trip id="veh182" type="veh_passenger" depart="742.92" departLane="best" departSpeed="max" from="-36689634#2" to="-297373653#2"/>
    <trip id="veh183" type="veh_passenger" depart="747.00" departLane="best" departSpeed="max" from="297373653#0" to="36689634#0"/>
    <trip id="veh184" type="veh_passenger" depart="751.08" departLane="best" departSpeed="max" from="73310501#0" to="36689634#0"/>
    <trip id="veh185" type="veh_passenger" depart="755.16" departLane="best" departSpeed="max" from="-73310497#2" to="-297373653#2"/>
    <trip id="veh186" type="veh_passenger" depart="759.25" departLane="best" departSpeed="max" from="-36689634#2" to="-73310501#2"/>
    <trip id="veh187" type="veh_passenger" depart="763.33" departLane="best" departSpeed="max" from="-36689634#2" to="-73310501#2"/>
    <trip id="veh188" type="veh_passenger" depart="767.41" departLane="best" departSpeed="max" from="73310501#0" to="36689634#0"/>
    <trip id="veh189" type="veh_passenger" depart="771.49" departLane="best" departSpeed="max" from="297373653#0" to="-73310501#2"/>
    <trip id="veh190" type="veh_passenger" depart="775.57" departLane="best" departSpeed="max" from="297373653#0" to="36689634#0"/>
    <trip id="veh191" type="veh_passenger" depart="779.66" departLane="best" departSpeed="max" from="-73310497#2" to="-297373653#2"/>
    <trip id="veh192" type="veh_passenger" depart="783.74" departLane="best" departSpeed="max" from="-36689634#2" to="-73310501#2"/>
    <trip id="veh193" type="veh_passenger" depart="787.82" departLane="best" departSpeed="max" from="297373653#0" to="73310497#0"/>
    <trip id="veh194" type="veh_passenger" depart="791.90" departLane="best" departSpeed="max" from="73310501#0" to="36689634#0"/>
    <trip id="veh195" type="veh_passenger" depart="795.98" departLane="best" departSpeed="max" from="73310501#0" to="36689634#0"/>
    <trip id="veh196" type="veh_passenger" depart="800.07" departLane="best" departSpeed="max" from="-36689634#2" to="-73310501#2"/>
    <trip id="veh197" type="veh_passenger" depart="804.15" departLane="best" departSpeed="max" from="73310501#0" to="36689634#0"/>
    <trip id="veh198" type="veh_passenger" depart="808.23" departLane="best" departSpeed="max" from="297373653#0" to="-73310501#2"/>
    <trip id="veh199" type="veh_passenger" depart="812.31" departLane="best" departSpeed="max" from="-73310497#2" to="-297373653#2"/>
    <trip id="veh200" type="veh_passenger" depart="816.39" departLane="best" departSpeed="max" from="-73310497#2" to="-297373653#2"/>
    <trip id="veh201" type="veh_passenger" depart="820.48" departLane="best" departSpeed="max" from="73310501#0" to="36689634#0"/>
    <trip id="veh202" type="veh_passenger" depart="824.56" departLane="best" departSpeed="max" from="73310501#0" to="36689634#0"/>
    <trip id="veh203" type="veh_passenger" depart="828.64" departLane="best" departSpeed="max" from="-36689634#2" to="-73310501#2"/>
    <trip id="veh204" type="veh_passenger" depart="832.72" departLane="best" departSpeed="max" from="297373653#0" to="73310497#0"/>
    <trip id="veh205" type="veh_passenger" depart="836.80" departLane="best" departSpeed="max" from="-73310497#2" to="-297373653#2"/>
    <trip id="veh206" type="veh_passenger" depart="840.88" departLane="best" departSpeed="max" from="297373653#0" to="-73310501#2"/>
    <trip id="veh207" type="veh_passenger" depart="844.97" departLane="best" departSpeed="max" from="73310501#0" to="-297373653#2"/>
    <trip id="veh208" type="veh_passenger" depart="849.05" departLane="best" departSpeed="max" from="73310501#0" to="36689634#0"/>
    <trip id="veh209" type="veh_passenger" depart="853.13" departLane="best" departSpeed="max" from="297373653#0" to="36689634#0"/>
    <trip id="veh210" type="veh_passenger" depart="857.21" departLane="best" departSpeed="max" from="297373653#0" to="73310497#0"/>
    <trip id="veh211" type="veh_passenger" depart="861.29" departLane="best" departSpeed="max" from="297373653#0" to="73310497#0"/>
    <trip id="veh212" type="veh_passenger" depart="865.38" departLane="best" departSpeed="max" from="-36689634#2" to="-73310501#2"/>
    <trip id="veh213" type="veh_passenger" depart="869.46" departLane="best" departSpeed="max" from="73310501#0" to="36689634#0"/>
    <trip id="veh214" type="veh_passenger" depart="873.54" departLane="best" departSpeed="max" from="73310501#0" to="-297373653#2"/>
    <trip id="veh215" type="veh_passenger" depart="877.62" departLane="best" departSpeed="max" from="297373653#0" to="73310497#0"/>
    <trip id="veh216" type="veh_passenger" depart="881.70" departLane="best" departSpeed="max" from="-36689634#2" to="-73310501#2"/>
    <trip id="veh217" type="veh_passenger" depart="885.79" departLane="best" departSpeed="max" from="-36689634#2" to="-297373653#2"/>
    <trip id="veh218" type="veh_passenger" depart="889.87" departLane="best" departSpeed="max" from="73310501#0" to="36689634#0"/>