<?xml version="1.0" encoding="UTF-8"?>

<!-- generated on Sat Feb 26 17:05:02 2022 by Eclipse SUMO polyconvert Version 1.8.0
<configuration xmlns:xsi="http://www.w3.org/2001/XMLSchema-instance" xsi:noNamespaceSchemaLocation="http://sumo.dlr.de/xsd/polyconvertConfiguration.xsd">

    <input>
        <net-file value="osm.net.xml"/>
        <osm-files value="osm_bbox.osm.xml"/>
        <osm.keep-full-type value="true"/>
        <type-file value="/usr/share/sumo/data/typemap/osmPolyconvert.typ.xml"/>
    </input>

    <output>
        <output-file value="osm.poly.xml"/>
    </output>

    <processing>
        <poi-layer-offset value="5"/>
    </processing>

    <report>
        <verbose value="true"/>
    </report>

</configuration>
-->

<additional xmlns:xsi="http://www.w3.org/2001/XMLSchema-instance" xsi:noNamespaceSchemaLocation="http://sumo.dlr.de/xsd/additional_file.xsd">
    <location netOffset="-391041.46,-5821037.26" convBoundary="-1217.39,-1009.66,1279.94,820.25" origBoundary="13.376132,52.519273,13.412700,52.536001" projParameter="+proj=utm +zone=33 +ellps=WGS84 +datum=WGS84 +units=m +no_defs"/>

    <poly id="105737457" type="building.residential" color="255,230,230" fill="1" layer="-1.00" shape="221.581407,97.939471 240.120279,104.894258 241.663344,104.092185 242.547287,105.697192 243.489807,107.189623 242.007790,107.990339 209.643711,215.545676 201.686018,213.218728 197.382767,212.268327 203.062432,193.002594 202.062373,192.891279 203.327188,189.035270 205.007654,189.532067 208.464537,177.125841 202.227615,176.196133 203.227381,171.711737 209.932469,172.942621 212.053819,166.096506 210.333254,165.322406 210.875805,162.862272 209.343455,162.618119 210.409870,159.300647 214.515963,160.233184 216.532750,153.567437 217.251141,153.829672 218.032070,150.796734 217.068007,150.473190 217.769178,148.432384 218.553918,148.626380 219.662234,144.139576 206.995510,141.238423 208.011148,135.329336 208.297248,134.766599 213.640837,135.805180 214.162792,136.694926 216.913511,137.101189 217.855674,138.882941 219.402317,138.548143 222.303532,128.925056 221.348564,127.788991 219.724134,129.204899 217.154083,128.683344 216.887095,129.190018 211.065969,128.039637 212.834624,121.201358 213.365926,121.289706 221.241715,122.672647 225.176170,123.820432 225.846150,121.902724 225.062962,120.250971 226.510583,120.040778 225.813865,118.921232 226.965498,114.856319 227.602364,114.808792 228.458587,113.332055 225.960425,112.686495 225.551124,113.507903 221.291435,112.078023 219.785749,113.035059 216.879840,111.753156 221.581407,97.939471"/>
    <poly id="129989321" type="building.residential" color="255,230,230" fill="1" layer="-1.00" shape="282.167094,81.271472 282.755249,68.940118 313.620461,70.792191 313.613805,71.103913 312.844276,83.216733 282.167094,81.271472"/>
    <poly id="24531108" type="building.residential" color="255,230,230" fill="1" layer="-1.00" shape="267.791165,62.829399 267.678142,49.790312 277.606955,50.104026 276.607181,58.872546 279.299228,59.079850 278.993816,62.747624 272.086862,62.823056 267.791165,62.829399"/>
    <poly id="24531353" type="building.residential" color="255,230,230" fill="1" layer="-1.00" shape="226.940594,68.510227 227.590669,52.861448 232.842799,52.833830 234.064753,52.851205 234.043447,58.003777 239.221451,58.000067 240.207079,57.154735 238.791458,55.750704 238.915327,53.077319 248.934410,53.177545 249.181467,72.556414 245.506206,75.442189 226.940594,68.510227"/>
    <poly id="24531356" type="building.residential" color="255,230,230" fill="1" layer="-1.00" shape="208.717050,61.704268 210.082617,49.244354 211.677029,34.865404 216.959584,36.817814 216.274604,47.838270 215.449911,48.290565 215.370036,49.583146 224.269778,53.369180 224.851475,51.753880 222.151704,49.365758 222.276297,38.780600 228.058212,40.911102 227.590669,52.861448 226.940594,68.510227 208.717050,61.704268"/>
    <poly id="254618258" type="landuse.residential" color="235,235,227" fill="1" layer="-3.00" shape="261.106438,26.757332 262.389665,25.560440 264.276871,25.585308 284.623007,33.846592 296.554367,34.182662 313.001714,34.652225 330.082358,35.219069 370.292238,36.129756 392.343443,36.519810 415.037190,37.118270 415.176439,35.746484 415.769538,35.254847 435.001159,35.807752 435.751617,36.291861 435.745806,37.560539 466.377431,38.361632 501.074368,39.173006 531.665751,39.997653 531.837471,38.558387 532.328833,38.069018 535.533554,38.443151 536.996839,39.245318 538.476380,40.781548 539.212369,42.145074 539.569866,43.272175 539.629889,44.450374 539.298327,46.026710 538.355051,47.560955 536.368461,47.337886 525.882163,69.958895 512.503830,100.188519 505.304302,104.209284 488.293522,102.494145 476.075908,99.949560 470.836931,98.730333 437.767242,96.915014 431.392855,98.970265 396.964556,96.484297 389.665962,96.034123 266.687570,87.401479 265.102040,86.902552 264.144374,86.256155 263.303603,84.761462 263.131761,31.474997 260.667363,31.129115 261.106438,26.757332"/>
    <poly id="26227900" type="building.residential" color="255,230,230" fill="1" layer="-1.00" shape="255.912950,126.320386 256.411769,124.640164 260.555738,110.772133 261.983608,109.672178 278.893206,110.799014 277.999224,123.415350 270.015071,122.958319 268.072941,129.933957 255.912950,126.320386"/>
    <poly id="271495326" type="building.apartments" color="255,230,230" fill="1" layer="-1.00" shape="293.918573,124.875792 297.696117,125.070140 298.759350,112.127352 278.893206,110.799014 277.999224,123.415350 277.963594,123.950268 289.191650,124.713648 293.918573,124.875792"/>
    <poly id="281029215" type="man_made.pipeline" color="255,230,230" fill="0" layer="-1.00" shape="246.457935,79.794220 12.595452,-17.237142"/>
    <poly id="386915725" type="building.residential" color="255,230,230" fill="1" layer="-1.00" shape="267.943143,80.374317 267.791165,62.829399 272.086862,62.823056 272.099563,68.286446 282.755249,68.940118 282.167094,81.271472 267.943143,80.374317"/>
    <poly id="390601776" type="landuse.residential" color="235,235,227" fill="1" layer="-3.00" shape="456.951105,115.840769 259.572618,103.171525 258.250050,103.512463 257.163177,104.382296 256.374281,105.835278 254.194870,112.515743 255.232810,112.804272 221.652286,225.182548 220.048421,224.773065 218.530457,229.758585 220.005332,230.471379 201.542266,293.808370 184.621689,350.189780 182.549111,349.757343 180.970707,355.378497 182.876433,355.937045 164.731947,416.462974 162.851642,415.825975 161.868694,419.230628 162.060952,421.774589 162.839423,423.215011 164.232641,424.530494 165.470817,425.281913 271.974096,430.360554 332.034514,433.322722 337.361335,433.315800 340.072033,432.843930 342.803198,432.071162 344.848700,430.979779 346.598482,430.017362 348.797018,428.177034 351.289423,425.818315 352.668739,423.450909 496.031451,132.578725 496.243999,130.226087 495.744443,128.200799 494.363093,126.195047 492.793904,124.594051 489.845422,122.611892 485.239669,119.954285 482.038589,118.823427 477.170484,117.495828 472.568629,116.852247 456.951105,115.840769"/>
    <poly id="390601808" type="building.apartments" color="255,230,230" fill="1" layer="-1.00" shape="289.191650,124.713648 289.137304,126.851361 293.836481,127.292313 293.918573,124.875792 289.191650,124.713648"/>
    <poly id="390601847" type="building.residential" color="255,230,230" fill="1" layer="-1.00" shape="252.552316,137.567159 255.420174,127.967091 255.912950,126.320386 268.072941,129.933957 268.825001,130.184324 266.071326,140.037785 261.277079,139.899417 252.552316,137.567159"/>
    <poly id="390623200" type="landuse.residential" color="235,235,227" fill="1" layer="-3.00" shape="73.457563,261.347449 107.256328,147.349660 104.540861,146.697866 105.878107,142.439624 108.479501,143.149593 130.490295,68.772645 128.611585,68.213513 130.001304,64.176666 131.339218,62.388757 133.283304,60.698651 135.803525,60.197527 138.507555,60.638169 190.221733,79.630047 223.872161,91.690495 221.581407,97.939471 216.879840,111.753156 213.365926,121.289706 212.834624,121.201358 181.119003,114.661829 177.931896,125.159250 176.191028,131.718735 175.314664,134.731545 203.479658,140.604354 197.811420,160.693274 196.517652,165.384501 183.075611,209.748642 197.382767,212.268327 201.686018,213.218728 213.995560,216.851093 212.562587,222.302088 213.780208,223.042849 213.907645,224.197294 212.421356,228.469943 211.432288,228.547551 210.476505,228.290591 202.357309,255.655802 198.254011,254.845620 197.903390,254.641984 189.796035,252.296126 185.633168,251.554043 165.520663,247.972744 153.679374,245.865712 142.675969,244.207446 139.292418,253.796799 135.995574,263.317463 133.846421,273.179829 128.177029,272.437902 126.617577,272.194378 123.033730,271.550753 115.077491,270.203149 111.064343,269.480056 90.824950,265.990906 77.390957,262.450626 73.457563,261.347449"/>
    <poly id="551201756" type="landuse.residential" color="235,235,227" fill="1" layer="-3.00" shape="73.443407,-52.363182 48.966466,-34.860222 18.246716,-14.580975 11.178988,-8.915515 0.003105,0.001635 11.968827,4.620400 53.149690,19.872697 130.675902,49.339637 149.201638,55.993936 231.146562,86.465860 236.079905,88.281386 241.051719,89.995913 256.623489,94.746611 257.234889,82.548267 257.334798,78.184013 258.500013,28.573366 254.823886,23.169057 251.314956,21.321884 229.428161,12.449546 213.594824,5.712886 83.424006,-47.900390 73.443407,-52.363182"/>
    <poly id="75242928" type="landuse.residential" color="235,235,227" fill="1" layer="-3.00" shape="233.193407,152.963727 213.995560,216.851093 209.643711,215.545676 201.686018,213.218728 197.382767,212.268327 183.075611,209.748642 196.517652,165.384501 197.811420,160.693274 203.479658,140.604354 175.314664,134.731545 176.191028,131.718735 177.931896,125.159250 181.119003,114.661829 212.834624,121.201358 213.365926,121.289706 216.879840,111.753156 221.581407,97.939471 223.872161,91.690495 247.943892,100.870365 249.978503,102.950568 250.244591,105.459507 248.512705,110.594424 246.114562,109.868739 238.448089,134.720098 233.193407,152.963727"/>
    <poi id="1217597889" type="shop.hairdresser" color="237,199,255" layer="4.00" x="242.55" y="105.70"/>
    <poi id="3902472801" type="shop.coffee" color="237,199,255" layer="4.00" x="246.50" y="73.13"/>
    <poi id="3902476754" type="natural.tree" color="140,196,107" layer="1.00" x="230.09" y="76.44"/>
    <poi id="3902729544" type="natural.tree" color="140,196,107" layer="1.00" x="280.71" y="87.48"/>
    <poi id="3902729545" type="natural.tree" color="140,196,107" layer="1.00" x="289.66" y="88.14"/>
    <poi id="3937667746" type="natural.tree" color="140,196,107" layer="1.00" x="268.14" y="104.68"/>
    <poi id="3937667747" type="natural.tree" color="140,196,107" layer="1.00" x="274.94" y="105.19"/>
    <poi id="3937667749" type="natural.tree" color="140,196,107" layer="1.00" x="288.56" y="106.61"/>
    <poi id="3937876358" type="natural.tree" color="140,196,107" layer="1.00" x="224.35" y="92.76"/>
    <poi id="4926523406" type="amenity.social_facility" color="237,199,199" layer="4.00" x="273.21" y="79.00"/>
    <poi id="528605901" type="amenity.pub" color="237,199,199" layer="4.00" x="262.21" y="111.91"/>
    <poi id="5698930705" type="amenity.waste_basket" color="237,199,199" layer="4.00" x="246.74" y="84.16"/>
    <poi id="7575388048" type="amenity.bicycle_parking" color="237,199,199" layer="4.00" x="255.30" y="111.58"/>
    <poi id="7575388668" type="amenity.bicycle_parking" color="237,199,199" layer="4.00" x="247.68" y="108.84"/>
    <poi id="8078889368" type="man_made.street_cabinet" color="255,230,230" layer="4.00" x="230.76" y="96.07"/>
</additional>
