<configuration>
<input>
<net-file value="green-wave.net.xml"/>
<route-files value="trips.trips.xml"/>
</input>
</configuration>