<?xml version="1.0" encoding="UTF-8"?>

<!-- generated on 2022-03-22 16:22:22 by Eclipse SUMO netedit Version 1.12.0
<configuration xmlns:xsi="http://www.w3.org/2001/XMLSchema-instance" xsi:noNamespaceSchemaLocation="http://sumo.dlr.de/xsd/netconvertConfiguration.xsd">

    <output>
        <output-file value="/Users/nikostsiougkranas/myprojects/sumo-integration/src/configs/green-wave/green-wave.net.xml"/>
    </output>

    <processing>
        <offset.disable-normalization value="true"/>
    </processing>

    <junctions>
        <no-turnarounds value="true"/>
    </junctions>

    <report>
        <aggregate-warnings value="5"/>
    </report>

</configuration>
-->

<net version="1.9" junctionCornerDetail="5" limitTurnSpeed="5.50" xmlns:xsi="http://www.w3.org/2001/XMLSchema-instance" xsi:noNamespaceSchemaLocation="http://sumo.dlr.de/xsd/net_file.xsd">

    <location netOffset="0.00,0.00" convBoundary="-134.81,-20.95,412.60,248.29" origBoundary="10000000000.00,10000000000.00,-10000000000.00,-10000000000.00" projParameter="!"/>

    <edge id=":J16_0" function="internal">
        <lane id=":J16_0_0" index="0" speed="13.89" length="17.60" shape="-8.61,121.10 -8.52,103.51"/>
    </edge>
    <edge id=":J16_1" function="internal">
        <lane id=":J16_1_0" index="0" speed="7.30" length="11.76" shape="-8.61,121.10 -8.30,117.25 -7.26,114.51 -5.49,112.86 -3.00,112.32"/>
        <lane id=":J16_1_1" index="1" speed="6.48" length="9.04" shape="-8.61,121.10 -8.29,118.65 -7.25,116.91 -5.49,115.86 -3.02,115.52"/>
    </edge>
    <edge id=":J16_3" function="internal">
        <lane id=":J16_3_0" index="0" speed="6.52" length="9.05" shape="-14.20,109.07 -11.74,108.73 -9.97,107.69 -8.90,105.95 -8.52,103.51"/>
    </edge>
    <edge id=":J16_4" function="internal">
        <lane id=":J16_4_0" index="0" speed="13.89" length="11.21" shape="-14.20,109.07 -2.99,109.12"/>
        <lane id=":J16_4_1" index="1" speed="13.89" length="11.21" shape="-14.21,112.27 -3.00,112.32"/>
        <lane id=":J16_4_2" index="2" speed="13.89" length="11.21" shape="-14.23,115.47 -3.02,115.52"/>
    </edge>
    <edge id=":J17_0" function="internal">
        <lane id=":J17_0_0" index="0" speed="6.50" length="9.03" shape="143.72,104.19 144.05,106.65 145.08,108.41 146.83,109.47 149.28,109.83"/>
    </edge>
    <edge id=":J17_1" function="internal">
        <lane id=":J17_1_0" index="0" speed="13.89" length="17.64" shape="143.72,104.19 143.65,121.83"/>
    </edge>
    <edge id=":J17_2" function="internal">
        <lane id=":J17_2_0" index="0" speed="13.89" length="11.25" shape="138.02,109.77 149.28,109.83"/>
        <lane id=":J17_2_1" index="1" speed="13.89" length="11.25" shape="138.01,112.97 149.26,113.03"/>
        <lane id=":J17_2_2" index="2" speed="13.89" length="11.25" shape="137.99,116.17 149.24,116.23"/>
    </edge>
    <edge id=":J17_5" function="internal">
        <lane id=":J17_5_0" index="0" speed="6.57" length="9.08" shape="137.99,116.17 140.44,116.54 142.19,117.60 143.26,119.37 143.65,121.83"/>
    </edge>
    <edge id=":J18_0" function="internal">
        <lane id=":J18_0_0" index="0" speed="13.89" length="17.60" shape="268.89,122.48 268.96,104.88"/>
    </edge>
    <edge id=":J18_1" function="internal">
        <lane id=":J18_1_0" index="0" speed="7.27" length="11.75" shape="268.89,122.48 269.19,118.63 270.21,115.88 271.97,114.24 274.46,113.72"/>
        <lane id=":J18_1_1" index="1" speed="6.44" length="9.01" shape="268.89,122.48 269.20,120.03 270.23,118.28 271.97,117.24 274.43,116.92"/>
    </edge>
    <edge id=":J18_3" function="internal">
        <lane id=":J18_3_0" index="0" speed="6.52" length="9.05" shape="263.29,110.44 265.75,110.10 267.52,109.07 268.59,107.32 268.96,104.88"/>
    </edge>
    <edge id=":J18_4" function="internal">
        <lane id=":J18_4_0" index="0" speed="13.89" length="11.19" shape="263.29,110.44 274.49,110.52"/>
        <lane id=":J18_4_1" index="1" speed="13.89" length="11.19" shape="263.27,113.64 274.46,113.72"/>
        <lane id=":J18_4_2" index="2" speed="13.89" length="11.19" shape="263.25,116.84 274.43,116.92"/>
    </edge>

    <edge id="E10" from="J16" to="J17" priority="-1" shape="-7.06,117.10 28.64,117.27 37.57,117.31 141.99,117.79">
        <lane id="E10_0" index="0" speed="13.89" length="141.01" shape="-2.99,109.12 28.68,109.27 37.61,109.31 138.02,109.77"/>
        <lane id="E10_1" index="1" speed="13.89" length="141.01" shape="-3.00,112.32 28.66,112.47 37.59,112.51 138.01,112.97"/>
        <lane id="E10_2" index="2" speed="13.89" length="141.01" shape="-3.02,115.52 28.65,115.67 37.58,115.71 137.99,116.17"/>
    </edge>
    <edge id="E11" from="J17" to="J18" priority="-1" shape="141.99,117.79 177.69,117.98 186.62,118.03 270.43,118.48">
        <lane id="E11_0" index="0" speed="13.89" length="114.01" shape="149.28,109.83 177.73,109.98 186.66,110.03 263.29,110.44"/>
        <lane id="E11_1" index="1" speed="13.89" length="114.01" shape="149.26,113.03 177.72,113.18 186.65,113.23 263.27,113.64"/>
        <lane id="E11_2" index="2" speed="13.89" length="114.01" shape="149.24,116.23 177.70,116.38 186.63,116.43 263.25,116.84"/>
    </edge>
    <edge id="E12" from="J18" to="J19" priority="-1" shape="270.43,118.48 306.12,118.82 315.06,118.91 412.60,119.85">
        <lane id="E12_0" index="0" speed="13.89" length="138.20" shape="274.49,110.52 306.20,110.82 315.14,110.91 412.68,111.85"/>
        <lane id="E12_1" index="1" speed="13.89" length="138.20" shape="274.46,113.72 306.17,114.02 315.11,114.11 412.65,115.05"/>
        <lane id="E12_2" index="2" speed="13.89" length="138.20" shape="274.43,116.92 306.14,117.22 315.08,117.31 412.62,118.25"/>
    </edge>
    <edge id="E13" from="J10" to="J16" priority="-1">
        <lane id="E13_0" index="0" speed="13.89" length="123.09" shape="-7.28,244.19 -8.61,121.10"/>
    </edge>
    <edge id="E14" from="J16" to="J11" priority="-1">
        <lane id="E14_0" index="0" speed="13.89" length="124.48" shape="-8.52,103.51 -7.28,-20.97"/>
    </edge>
    <edge id="E15" from="J13" to="J17" priority="-1">
        <lane id="E15_0" index="0" speed="13.89" length="122.39" shape="144.96,-18.19 143.72,104.19"/>
    </edge>
    <edge id="E16" from="J17" to="J12" priority="-1">
        <lane id="E16_0" index="0" speed="13.89" length="125.76" shape="143.65,121.83 145.65,247.58"/>
    </edge>
    <edge id="E17" from="J14" to="J18" priority="-1">
        <lane id="E17_0" index="0" speed="13.89" length="125.85" shape="270.89,248.32 268.89,122.48"/>
    </edge>
    <edge id="E18" from="J18" to="J15" priority="-1">
        <lane id="E18_0" index="0" speed="13.89" length="123.79" shape="268.96,104.88 270.20,-18.91"/>
    </edge>
    <edge id="E9" from="J8" to="J16" priority="-1" shape="-134.81,116.42 -99.11,116.61 -90.18,116.66 -7.06,117.10">
        <lane id="E9_0" index="0" speed="13.89" length="120.57" shape="-134.77,108.42 -99.07,108.61 -90.14,108.66 -14.20,109.07"/>
        <lane id="E9_1" index="1" speed="13.89" length="120.57" shape="-134.78,111.62 -99.08,111.81 -90.15,111.86 -14.21,112.27"/>
        <lane id="E9_2" index="2" speed="13.89" length="120.57" shape="-134.80,114.82 -99.10,115.01 -90.17,115.06 -14.23,115.47"/>
    </edge>

    <tlLogic id="J16" type="static" programID="0" offset="30">
        <phase duration="42" state="GGGrrrr"/>
        <phase duration="3"  state="yyyrrrr"/>
        <phase duration="42" state="rrrGGGG"/>
        <phase duration="3"  state="rrryyyy"/>
    </tlLogic>
    <tlLogic id="J17" type="static" programID="0" offset="15">
        <phase duration="42" state="GGrrrr"/>
        <phase duration="3"  state="yyrrrr"/>
        <phase duration="42" state="rrGGGG"/>
        <phase duration="3"  state="rryyyy"/>
    </tlLogic>
    <tlLogic id="J18" type="static" programID="0" offset="0">
        <phase duration="42" state="GGGrrrr"/>
        <phase duration="3"  state="yyyrrrr"/>
        <phase duration="42" state="rrrGGGG"/>
        <phase duration="3"  state="rrryyyy"/>
    </tlLogic>

    <junction id="J10" type="dead_end" x="-5.68" y="244.17" incLanes="" intLanes="" shape="-5.68,244.17 -8.88,244.21"/>
    <junction id="J11" type="dead_end" x="-5.68" y="-20.95" incLanes="E14_0" intLanes="" shape="-8.88,-20.98 -5.68,-20.95"/>
    <junction id="J12" type="dead_end" x="144.05" y="247.60" incLanes="E16_0" intLanes="" shape="147.25,247.55 144.05,247.60"/>
    <junction id="J13" type="dead_end" x="143.36" y="-18.20" incLanes="" intLanes="" shape="143.36,-18.20 146.56,-18.17"/>
    <junction id="J14" type="dead_end" x="272.49" y="248.29" incLanes="" intLanes="" shape="272.49,248.29 269.29,248.34"/>
    <junction id="J15" type="dead_end" x="271.80" y="-18.89" incLanes="E18_0" intLanes="" shape="268.60,-18.92 271.80,-18.89"/>
    <junction id="J16" type="traffic_light" x="-7.06" y="117.10" incLanes="E13_0 E9_0 E9_1 E9_2" intLanes=":J16_0_0 :J16_1_0 :J16_1_1 :J16_3_0 :J16_4_0 :J16_4_1 :J16_4_2" shape="-10.21,121.12 -7.01,121.09 -6.59,118.88 -6.04,118.10 -5.26,117.56 -4.26,117.23 -3.02,117.12 -2.98,107.52 -5.19,107.07 -5.96,106.51 -6.50,105.74 -6.82,104.74 -6.92,103.52 -10.12,103.49 -10.59,105.71 -11.16,106.48 -11.95,107.03 -12.96,107.36 -14.19,107.47 -14.24,117.07 -12.02,117.53 -11.24,118.09 -10.68,118.88 -10.34,119.89">
        <request index="0" response="1111000" foes="1111000" cont="0"/>
        <request index="1" response="1110000" foes="1110000" cont="0"/>
        <request index="2" response="1110000" foes="1110000" cont="0"/>
        <request index="3" response="0000000" foes="0000001" cont="0"/>
        <request index="4" response="0000000" foes="0000111" cont="0"/>
        <request index="5" response="0000000" foes="0000111" cont="0"/>
        <request index="6" response="0000000" foes="0000111" cont="0"/>
    </junction>
    <junction id="J17" type="traffic_light" x="141.99" y="117.79" incLanes="E15_0 E10_0 E10_1 E10_2" intLanes=":J17_0_0 :J17_1_0 :J17_2_0 :J17_2_1 :J17_2_2 :J17_5_0" shape="142.05,121.86 145.25,121.81 145.67,119.59 146.22,118.81 146.99,118.26 148.00,117.93 149.23,117.83 149.28,108.23 147.07,107.77 146.29,107.21 145.75,106.43 145.42,105.43 145.32,104.21 142.12,104.18 141.65,106.41 141.08,107.18 140.29,107.74 139.27,108.07 138.03,108.17 137.99,117.77 140.22,118.24 141.00,118.80 141.57,119.60 141.92,120.62">
        <request index="0" response="011100" foes="011100" cont="0"/>
        <request index="1" response="111100" foes="111100" cont="0"/>
        <request index="2" response="000000" foes="000011" cont="0"/>
        <request index="3" response="000000" foes="000011" cont="0"/>
        <request index="4" response="000000" foes="000011" cont="0"/>
        <request index="5" response="000000" foes="000010" cont="0"/>
    </junction>
    <junction id="J18" type="traffic_light" x="270.43" y="118.48" incLanes="E17_0 E11_0 E11_1 E11_2" intLanes=":J18_0_0 :J18_1_0 :J18_1_1 :J18_3_0 :J18_4_0 :J18_4_1 :J18_4_2" shape="267.29,122.51 270.49,122.46 270.90,120.25 271.44,119.48 272.20,118.94 273.20,118.62 274.41,118.52 274.50,108.92 272.30,108.45 271.53,107.89 270.98,107.11 270.66,106.12 270.56,104.90 267.36,104.87 266.89,107.08 266.33,107.86 265.54,108.41 264.53,108.74 263.30,108.84 263.24,118.44 265.46,118.90 266.25,119.47 266.81,120.26 267.16,121.27">
        <request index="0" response="1111000" foes="1111000" cont="0"/>
        <request index="1" response="1110000" foes="1110000" cont="0"/>
        <request index="2" response="1110000" foes="1110000" cont="0"/>
        <request index="3" response="0000000" foes="0000001" cont="0"/>
        <request index="4" response="0000000" foes="0000111" cont="0"/>
        <request index="5" response="0000000" foes="0000111" cont="0"/>
        <request index="6" response="0000000" foes="0000111" cont="0"/>
    </junction>
    <junction id="J19" type="dead_end" x="412.60" y="119.85" incLanes="E12_0 E12_1 E12_2" intLanes="" shape="412.70,110.25 412.60,119.85"/>
    <junction id="J8" type="dead_end" x="-134.81" y="116.42" incLanes="" intLanes="" shape="-134.81,116.42 -134.76,106.82"/>

    <connection from="E10" to="E11" fromLane="0" toLane="0" via=":J17_2_0" tl="J17" linkIndex="2" dir="s" state="O"/>
    <connection from="E10" to="E11" fromLane="1" toLane="1" via=":J17_2_1" tl="J17" linkIndex="3" dir="s" state="O"/>
    <connection from="E10" to="E11" fromLane="2" toLane="2" via=":J17_2_2" tl="J17" linkIndex="4" dir="s" state="O"/>
    <connection from="E10" to="E16" fromLane="2" toLane="0" via=":J17_5_0" tl="J17" linkIndex="5" dir="l" state="O"/>
    <connection from="E11" to="E18" fromLane="0" toLane="0" via=":J18_3_0" tl="J18" linkIndex="3" dir="r" state="O"/>
    <connection from="E11" to="E12" fromLane="0" toLane="0" via=":J18_4_0" tl="J18" linkIndex="4" dir="s" state="O"/>
    <connection from="E11" to="E12" fromLane="1" toLane="1" via=":J18_4_1" tl="J18" linkIndex="5" dir="s" state="O"/>
    <connection from="E11" to="E12" fromLane="2" toLane="2" via=":J18_4_2" tl="J18" linkIndex="6" dir="s" state="O"/>
    <connection from="E13" to="E14" fromLane="0" toLane="0" via=":J16_0_0" tl="J16" linkIndex="0" dir="s" state="o"/>
    <connection from="E13" to="E10" fromLane="0" toLane="1" via=":J16_1_0" tl="J16" linkIndex="1" dir="l" state="o"/>
    <connection from="E13" to="E10" fromLane="0" toLane="2" via=":J16_1_1" tl="J16" linkIndex="2" dir="l" state="o"/>
    <connection from="E15" to="E11" fromLane="0" toLane="0" via=":J17_0_0" tl="J17" linkIndex="0" dir="r" state="o"/>
    <connection from="E15" to="E16" fromLane="0" toLane="0" via=":J17_1_0" tl="J17" linkIndex="1" dir="s" state="o"/>
    <connection from="E17" to="E18" fromLane="0" toLane="0" via=":J18_0_0" tl="J18" linkIndex="0" dir="s" state="o"/>
    <connection from="E17" to="E12" fromLane="0" toLane="1" via=":J18_1_0" tl="J18" linkIndex="1" dir="l" state="o"/>
    <connection from="E17" to="E12" fromLane="0" toLane="2" via=":J18_1_1" tl="J18" linkIndex="2" dir="l" state="o"/>
    <connection from="E9" to="E14" fromLane="0" toLane="0" via=":J16_3_0" tl="J16" linkIndex="3" dir="r" state="O"/>
    <connection from="E9" to="E10" fromLane="0" toLane="0" via=":J16_4_0" tl="J16" linkIndex="4" dir="s" state="O"/>
    <connection from="E9" to="E10" fromLane="1" toLane="1" via=":J16_4_1" tl="J16" linkIndex="5" dir="s" state="O"/>
    <connection from="E9" to="E10" fromLane="2" toLane="2" via=":J16_4_2" tl="J16" linkIndex="6" dir="s" state="O"/>

    <connection from=":J16_0" to="E14" fromLane="0" toLane="0" dir="s" state="M"/>
    <connection from=":J16_1" to="E10" fromLane="0" toLane="1" dir="l" state="M"/>
    <connection from=":J16_1" to="E10" fromLane="1" toLane="2" dir="l" state="M"/>
    <connection from=":J16_3" to="E14" fromLane="0" toLane="0" dir="r" state="M"/>
    <connection from=":J16_4" to="E10" fromLane="0" toLane="0" dir="s" state="M"/>
    <connection from=":J16_4" to="E10" fromLane="1" toLane="1" dir="s" state="M"/>
    <connection from=":J16_4" to="E10" fromLane="2" toLane="2" dir="s" state="M"/>
    <connection from=":J17_0" to="E11" fromLane="0" toLane="0" dir="r" state="M"/>
    <connection from=":J17_1" to="E16" fromLane="0" toLane="0" dir="s" state="M"/>
    <connection from=":J17_2" to="E11" fromLane="0" toLane="0" dir="s" state="M"/>
    <connection from=":J17_2" to="E11" fromLane="1" toLane="1" dir="s" state="M"/>
    <connection from=":J17_2" to="E11" fromLane="2" toLane="2" dir="s" state="M"/>
    <connection from=":J17_5" to="E16" fromLane="0" toLane="0" dir="l" state="M"/>
    <connection from=":J18_0" to="E18" fromLane="0" toLane="0" dir="s" state="M"/>
    <connection from=":J18_1" to="E12" fromLane="0" toLane="1" dir="l" state="M"/>
    <connection from=":J18_1" to="E12" fromLane="1" toLane="2" dir="l" state="M"/>
    <connection from=":J18_3" to="E18" fromLane="0" toLane="0" dir="r" state="M"/>
    <connection from=":J18_4" to="E12" fromLane="0" toLane="0" dir="s" state="M"/>
    <connection from=":J18_4" to="E12" fromLane="1" toLane="1" dir="s" state="M"/>
    <connection from=":J18_4" to="E12" fromLane="2" toLane="2" dir="s" state="M"/>

</net>
