<configuration>
<input>
<net-file value="maxband.net.xml"/>
<route-files value="trips.trips.xml"/>
</input>
</configuration>